/*---------------------------------------------------------------------------*\
  =========                 |
  \\      /  F ield         | OpenFOAM: The Open Source CFD Toolbox
   \\    /   O peration     | Website:  https://openfoam.org
    \\  /    A nd           | Version:  12
     \\/     M anipulation  |
\*---------------------------------------------------------------------------*/
Build  : 12-86e126a7bc4d
Exec   : blockMesh
Date   : Apr 18 2025
Time   : 12:02:37
Host   : "IhorPC"
PID    : 44567
I/O    : uncollated
Case   : /home/ihor/OpenFOAM/ihor-10/myWindTunnelCase
nProcs : 1
sigFpe : Enabling floating point exception trapping (FOAM_SIGFPE).
fileModificationChecking : Monitoring run-time modified files using timeStampMaster (fileModificationSkew 10)
allowSystemOperations : Allowing user-supplied system call operations

// * * * * * * * * * * * * * * * * * * * * * * * * * * * * * * * * * * * * * //
Create time

Deleting polyMesh directory
    "/home/ihor/OpenFOAM/ihor-10/myWindTunnelCase/constant/polyMesh"
Reading "blockMeshDict"

Creating block mesh from
    "system/blockMeshDict"
Creating block edges
No non-planar block faces defined
Creating topology blocks
Creating topology patches

Creating block mesh topology

Check topology

	Basic statistics
		Number of internal faces : 0
		Number of boundary faces : 6
		Number of defined boundary faces : 6
		Number of undefined boundary faces : 0
	Checking patch -> block consistency

Creating block offsets
Creating merge list .

Creating polyMesh from blockMesh
Creating patches
Creating cells
Creating points with scale 1
    Block 0 cell size :
        i : 0.2
        j : 0.2
        k : 0.208

Writing polyMesh
----------------
Mesh Information
----------------
  boundingBox: (-3 -10 -2.6) (3 10 2.6)
  nPoints: 81406
  nCells: 75000
  nFaces: 231250
  nInternalFaces: 218750
----------------
Patches
----------------
  patch 0 (start: 218750 size: 750) name: inlet
  patch 1 (start: 219500 size: 750) name: outlet
  patch 2 (start: 220250 size: 11000) name: walls

End

