/*---------------------------------------------------------------------------*\
  =========                 |
  \\      /  F ield         | OpenFOAM: The Open Source CFD Toolbox
   \\    /   O peration     | Website:  https://openfoam.org
    \\  /    A nd           | Version:  12
     \\/     M anipulation  |
\*---------------------------------------------------------------------------*/
Build  : 12-86e126a7bc4d
Exec   : foamRun -solver incompressibleFluid -parallel
Date   : Apr 18 2025
Time   : 12:13:14
Host   : "IhorPC"
PID    : 72289
I/O    : uncollated
Case   : /home/ihor/OpenFOAM/ihor-10/myWindTunnelCase
nProcs : 6
Slaves : 
5
(
"IhorPC.72290"
"IhorPC.72291"
"IhorPC.72292"
"IhorPC.72293"
"IhorPC.72294"
)

Pstream initialised with:
    floatTransfer      : false
    nProcsSimpleSum    : 0
    commsType          : nonBlocking
    polling iterations : 0
sigFpe : Enabling floating point exception trapping (FOAM_SIGFPE).
fileModificationChecking : Monitoring run-time modified files using timeStampMaster (fileModificationSkew 10)
allowSystemOperations : Allowing user-supplied system call operations

// * * * * * * * * * * * * * * * * * * * * * * * * * * * * * * * * * * * * * //
Create time

Create mesh for time = 0

Selecting solver incompressibleFluid
Selecting viscosity model constant
Selecting turbulence model type RAS
Selecting RAS turbulence model kEpsilon
RAS
{
    RASModel        kEpsilon;
    turbulence      on;
    printCoeffs     on;
    Cmu             0.09;
    C1              1.44;
    C2              1.92;
    C3              0;
    sigmak          1;
    sigmaEps        1.3;
}

No MRF models present


SIMPLE: Convergence criteria found
        p: tolerance 1e-06
        U: tolerance 1e-06
        k: tolerance 1e-06
        epsilon: tolerance 1e-06


SIMPLE: Operating solver in steady-state mode with 1 outer corrector
SIMPLE: Operating solver in SIMPLE mode



Starting time loop

wallShearStress wallShearStress:
    processing all wall patches

Time = 1s

smoothSolver:  Solving for Ux, Initial residual = 1, Final residual = 0.0976515, No Iterations 1
smoothSolver:  Solving for Uy, Initial residual = 1, Final residual = 0.0282514, No Iterations 2
smoothSolver:  Solving for Uz, Initial residual = 1, Final residual = 0.0219938, No Iterations 2
GAMG:  Solving for p, Initial residual = 1, Final residual = 0.0801921, No Iterations 5
time step continuity errors : sum local = 0.00825752, global = -0.00024835, cumulative = -0.00024835
smoothSolver:  Solving for epsilon, Initial residual = 0.225218, Final residual = 0.00866959, No Iterations 2
smoothSolver:  Solving for k, Initial residual = 1, Final residual = 0.0376303, No Iterations 3
ExecutionTime = 1.43684 s  ClockTime = 2 s

Time = 2s

smoothSolver:  Solving for Ux, Initial residual = 0.688022, Final residual = 0.0234626, No Iterations 3
smoothSolver:  Solving for Uy, Initial residual = 0.457566, Final residual = 0.0160864, No Iterations 3
smoothSolver:  Solving for Uz, Initial residual = 0.681583, Final residual = 0.0243084, No Iterations 3
GAMG:  Solving for p, Initial residual = 0.893639, Final residual = 0.0403553, No Iterations 2
time step continuity errors : sum local = 0.0828502, global = -0.000625345, cumulative = -0.000873694
smoothSolver:  Solving for epsilon, Initial residual = 0.157526, Final residual = 0.00489063, No Iterations 2
smoothSolver:  Solving for k, Initial residual = 0.763153, Final residual = 0.0613749, No Iterations 2
bounding k, min: -14.1249 max: 5576.98 average: 5.73057
ExecutionTime = 2.07716 s  ClockTime = 2 s

Time = 3s

smoothSolver:  Solving for Ux, Initial residual = 0.235136, Final residual = 0.0115821, No Iterations 2
smoothSolver:  Solving for Uy, Initial residual = 0.12075, Final residual = 0.00643627, No Iterations 2
smoothSolver:  Solving for Uz, Initial residual = 0.20914, Final residual = 0.0122521, No Iterations 2
GAMG:  Solving for p, Initial residual = 0.807695, Final residual = 0.0601352, No Iterations 2
time step continuity errors : sum local = 0.0978308, global = -0.0010057, cumulative = -0.0018794
smoothSolver:  Solving for epsilon, Initial residual = 0.0950879, Final residual = 0.00527386, No Iterations 2
smoothSolver:  Solving for k, Initial residual = 0.251387, Final residual = 0.00902808, No Iterations 3
bounding k, min: -391.343 max: 23224.8 average: 16.1152
ExecutionTime = 2.70106 s  ClockTime = 3 s

Time = 4s

smoothSolver:  Solving for Ux, Initial residual = 0.309846, Final residual = 0.028993, No Iterations 2
smoothSolver:  Solving for Uy, Initial residual = 0.172098, Final residual = 0.00587736, No Iterations 3
smoothSolver:  Solving for Uz, Initial residual = 0.273181, Final residual = 0.0259167, No Iterations 2
GAMG:  Solving for p, Initial residual = 0.508846, Final residual = 0.0407229, No Iterations 2
time step continuity errors : sum local = 0.0827363, global = -0.00134886, cumulative = -0.00322826
smoothSolver:  Solving for epsilon, Initial residual = 0.106801, Final residual = 0.00317559, No Iterations 2
smoothSolver:  Solving for k, Initial residual = 0.0955019, Final residual = 0.00638514, No Iterations 2
bounding k, min: -33.3136 max: 43561.8 average: 25.2404
ExecutionTime = 3.34574 s  ClockTime = 4 s

Time = 5s

smoothSolver:  Solving for Ux, Initial residual = 0.458175, Final residual = 0.016243, No Iterations 3
smoothSolver:  Solving for Uy, Initial residual = 0.288433, Final residual = 0.0107039, No Iterations 3
smoothSolver:  Solving for Uz, Initial residual = 0.407185, Final residual = 0.0147355, No Iterations 3
GAMG:  Solving for p, Initial residual = 0.664534, Final residual = 0.0584167, No Iterations 2
time step continuity errors : sum local = 0.191719, global = -0.00157769, cumulative = -0.00480595
smoothSolver:  Solving for epsilon, Initial residual = 0.0799215, Final residual = 0.00641167, No Iterations 1
smoothSolver:  Solving for k, Initial residual = 0.135493, Final residual = 0.00946141, No Iterations 2
bounding k, min: -3.4233 max: 51121.6 average: 56.3298
ExecutionTime = 3.98122 s  ClockTime = 4 s

Time = 6s

smoothSolver:  Solving for Ux, Initial residual = 0.270886, Final residual = 0.0237201, No Iterations 2
smoothSolver:  Solving for Uy, Initial residual = 0.11428, Final residual = 0.00982423, No Iterations 2
smoothSolver:  Solving for Uz, Initial residual = 0.27709, Final residual = 0.0248163, No Iterations 2
GAMG:  Solving for p, Initial residual = 0.648586, Final residual = 0.0363152, No Iterations 3
time step continuity errors : sum local = 0.0929601, global = -0.00125796, cumulative = -0.00606391
smoothSolver:  Solving for epsilon, Initial residual = 0.0442676, Final residual = 0.00143392, No Iterations 2
smoothSolver:  Solving for k, Initial residual = 0.0584051, Final residual = 0.00473316, No Iterations 2
bounding k, min: -0.560289 max: 46625.8 average: 74.616
ExecutionTime = 4.62355 s  ClockTime = 5 s

Time = 7s

smoothSolver:  Solving for Ux, Initial residual = 0.654044, Final residual = 0.0643554, No Iterations 2
smoothSolver:  Solving for Uy, Initial residual = 0.284448, Final residual = 0.00989623, No Iterations 3
smoothSolver:  Solving for Uz, Initial residual = 0.665055, Final residual = 0.0224162, No Iterations 3
GAMG:  Solving for p, Initial residual = 0.582509, Final residual = 0.0570227, No Iterations 2
time step continuity errors : sum local = 0.124576, global = -0.000903555, cumulative = -0.00696746
smoothSolver:  Solving for epsilon, Initial residual = 0.038397, Final residual = 0.00340894, No Iterations 1
smoothSolver:  Solving for k, Initial residual = 0.0248037, Final residual = 0.000976245, No Iterations 2
bounding k, min: -2.67913 max: 55915.3 average: 77.4934
ExecutionTime = 5.26295 s  ClockTime = 6 s

Time = 8s

smoothSolver:  Solving for Ux, Initial residual = 0.476516, Final residual = 0.0167322, No Iterations 3
smoothSolver:  Solving for Uy, Initial residual = 0.264478, Final residual = 0.00979506, No Iterations 3
smoothSolver:  Solving for Uz, Initial residual = 0.454849, Final residual = 0.0162317, No Iterations 3
GAMG:  Solving for p, Initial residual = 0.69845, Final residual = 0.0472891, No Iterations 3
time step continuity errors : sum local = 0.108334, global = 0.000124781, cumulative = -0.00684268
smoothSolver:  Solving for epsilon, Initial residual = 0.0371824, Final residual = 0.00223874, No Iterations 1
smoothSolver:  Solving for k, Initial residual = 0.0258799, Final residual = 0.00125037, No Iterations 2
ExecutionTime = 5.95799 s  ClockTime = 6 s

Time = 9s

smoothSolver:  Solving for Ux, Initial residual = 0.279584, Final residual = 0.0219937, No Iterations 2
smoothSolver:  Solving for Uy, Initial residual = 0.0621904, Final residual = 0.00488974, No Iterations 2
smoothSolver:  Solving for Uz, Initial residual = 0.271415, Final residual = 0.0223748, No Iterations 2
GAMG:  Solving for p, Initial residual = 0.718162, Final residual = 0.0391709, No Iterations 3
time step continuity errors : sum local = 0.0777171, global = 0.00138725, cumulative = -0.00545543
smoothSolver:  Solving for epsilon, Initial residual = 0.0260928, Final residual = 0.00218029, No Iterations 1
smoothSolver:  Solving for k, Initial residual = 0.0146481, Final residual = 0.000702836, No Iterations 2
bounding k, min: -0.715831 max: 52469.4 average: 82.4269
ExecutionTime = 6.62508 s  ClockTime = 7 s

Time = 10s

smoothSolver:  Solving for Ux, Initial residual = 0.461322, Final residual = 0.0460661, No Iterations 2
smoothSolver:  Solving for Uy, Initial residual = 0.103449, Final residual = 0.00370321, No Iterations 3
smoothSolver:  Solving for Uz, Initial residual = 0.477047, Final residual = 0.0163027, No Iterations 3
GAMG:  Solving for p, Initial residual = 0.578659, Final residual = 0.0346441, No Iterations 3
time step continuity errors : sum local = 0.0678298, global = 0.00282013, cumulative = -0.0026353
smoothSolver:  Solving for epsilon, Initial residual = 0.0205081, Final residual = 0.0014297, No Iterations 1
smoothSolver:  Solving for k, Initial residual = 0.0110351, Final residual = 0.00050784, No Iterations 2
bounding k, min: -0.299776 max: 41583.3 average: 77.0766
ExecutionTime = 7.32575 s  ClockTime = 8 s

Time = 11s

smoothSolver:  Solving for Ux, Initial residual = 0.330676, Final residual = 0.0323212, No Iterations 2
smoothSolver:  Solving for Uy, Initial residual = 0.134094, Final residual = 0.0047795, No Iterations 3
smoothSolver:  Solving for Uz, Initial residual = 0.311606, Final residual = 0.0310996, No Iterations 2
GAMG:  Solving for p, Initial residual = 0.584029, Final residual = 0.0447933, No Iterations 3
time step continuity errors : sum local = 0.0882443, global = 0.00399877, cumulative = 0.00136347
smoothSolver:  Solving for epsilon, Initial residual = 0.0215218, Final residual = 0.00195346, No Iterations 1
smoothSolver:  Solving for k, Initial residual = 0.0108337, Final residual = 0.000569749, No Iterations 2
ExecutionTime = 7.97976 s  ClockTime = 8 s

Time = 12s

smoothSolver:  Solving for Ux, Initial residual = 0.267915, Final residual = 0.0216409, No Iterations 2
smoothSolver:  Solving for Uy, Initial residual = 0.204652, Final residual = 0.0159881, No Iterations 2
smoothSolver:  Solving for Uz, Initial residual = 0.25383, Final residual = 0.0210742, No Iterations 2
GAMG:  Solving for p, Initial residual = 0.595938, Final residual = 0.0397843, No Iterations 3
time step continuity errors : sum local = 0.0671368, global = 0.00458154, cumulative = 0.00594501
smoothSolver:  Solving for epsilon, Initial residual = 0.0188167, Final residual = 0.000315087, No Iterations 2
smoothSolver:  Solving for k, Initial residual = 0.0091861, Final residual = 0.00054777, No Iterations 2
bounding k, min: -10.6962 max: 13196 average: 64.05
ExecutionTime = 8.6328 s  ClockTime = 9 s

Time = 13s

smoothSolver:  Solving for Ux, Initial residual = 0.411096, Final residual = 0.0397771, No Iterations 2
smoothSolver:  Solving for Uy, Initial residual = 0.273781, Final residual = 0.00930545, No Iterations 3
smoothSolver:  Solving for Uz, Initial residual = 0.478122, Final residual = 0.0471509, No Iterations 2
GAMG:  Solving for p, Initial residual = 0.622292, Final residual = 0.0410348, No Iterations 3
time step continuity errors : sum local = 0.0608154, global = 0.00428354, cumulative = 0.0102285
smoothSolver:  Solving for epsilon, Initial residual = 0.0163542, Final residual = 0.000351854, No Iterations 2
smoothSolver:  Solving for k, Initial residual = 0.00877955, Final residual = 0.000560212, No Iterations 2
ExecutionTime = 9.25944 s  ClockTime = 10 s

Time = 14s

smoothSolver:  Solving for Ux, Initial residual = 0.333531, Final residual = 0.0317066, No Iterations 2
smoothSolver:  Solving for Uy, Initial residual = 0.0959384, Final residual = 0.00332703, No Iterations 3
smoothSolver:  Solving for Uz, Initial residual = 0.35434, Final residual = 0.0346074, No Iterations 2
GAMG:  Solving for p, Initial residual = 0.558373, Final residual = 0.0479325, No Iterations 3
time step continuity errors : sum local = 0.0744969, global = 0.00335826, cumulative = 0.0135868
smoothSolver:  Solving for epsilon, Initial residual = 0.0139214, Final residual = 0.000356112, No Iterations 2
smoothSolver:  Solving for k, Initial residual = 0.00775506, Final residual = 0.000507505, No Iterations 2
ExecutionTime = 9.94084 s  ClockTime = 10 s

Time = 15s

smoothSolver:  Solving for Ux, Initial residual = 0.270277, Final residual = 0.022139, No Iterations 2
smoothSolver:  Solving for Uy, Initial residual = 0.0443528, Final residual = 0.00352789, No Iterations 2
smoothSolver:  Solving for Uz, Initial residual = 0.260985, Final residual = 0.0211666, No Iterations 2
GAMG:  Solving for p, Initial residual = 0.515499, Final residual = 0.0399579, No Iterations 3
time step continuity errors : sum local = 0.0571649, global = 0.00164182, cumulative = 0.0152286
smoothSolver:  Solving for epsilon, Initial residual = 0.0133499, Final residual = 0.000364074, No Iterations 2
smoothSolver:  Solving for k, Initial residual = 0.00705541, Final residual = 0.00049817, No Iterations 2
ExecutionTime = 10.587 s  ClockTime = 11 s

Time = 16s

smoothSolver:  Solving for Ux, Initial residual = 0.328966, Final residual = 0.0309504, No Iterations 2
smoothSolver:  Solving for Uy, Initial residual = 0.0579707, Final residual = 0.00548517, No Iterations 2
smoothSolver:  Solving for Uz, Initial residual = 0.339526, Final residual = 0.0325255, No Iterations 2
GAMG:  Solving for p, Initial residual = 0.513233, Final residual = 0.0328559, No Iterations 3
time step continuity errors : sum local = 0.0422513, global = -0.000279423, cumulative = 0.0149492
smoothSolver:  Solving for epsilon, Initial residual = 0.0171185, Final residual = 0.000382871, No Iterations 2
smoothSolver:  Solving for k, Initial residual = 0.00672867, Final residual = 0.000503502, No Iterations 2
ExecutionTime = 11.2174 s  ClockTime = 12 s

Time = 17s

smoothSolver:  Solving for Ux, Initial residual = 0.263498, Final residual = 0.0240833, No Iterations 2
smoothSolver:  Solving for Uy, Initial residual = 0.0587059, Final residual = 0.0055991, No Iterations 2
smoothSolver:  Solving for Uz, Initial residual = 0.251444, Final residual = 0.0237003, No Iterations 2
GAMG:  Solving for p, Initial residual = 0.5152, Final residual = 0.0390688, No Iterations 3
time step continuity errors : sum local = 0.0487828, global = -0.00193281, cumulative = 0.0130164
smoothSolver:  Solving for epsilon, Initial residual = 0.0238863, Final residual = 0.00166907, No Iterations 1
smoothSolver:  Solving for k, Initial residual = 0.00654659, Final residual = 0.000500458, No Iterations 2
ExecutionTime = 11.8347 s  ClockTime = 12 s

Time = 18s

smoothSolver:  Solving for Ux, Initial residual = 0.196745, Final residual = 0.0159504, No Iterations 2
smoothSolver:  Solving for Uy, Initial residual = 0.0462397, Final residual = 0.00371481, No Iterations 2
smoothSolver:  Solving for Uz, Initial residual = 0.192307, Final residual = 0.0152809, No Iterations 2
GAMG:  Solving for p, Initial residual = 0.526625, Final residual = 0.0410334, No Iterations 3
time step continuity errors : sum local = 0.0473759, global = -0.0027242, cumulative = 0.0102922
smoothSolver:  Solving for epsilon, Initial residual = 0.0157155, Final residual = 0.000382323, No Iterations 2
smoothSolver:  Solving for k, Initial residual = 0.00608971, Final residual = 0.000474835, No Iterations 2
bounding k, min: -0.357214 max: 2076.95 average: 34.8083
ExecutionTime = 12.474 s  ClockTime = 13 s

Time = 19s

smoothSolver:  Solving for Ux, Initial residual = 0.202209, Final residual = 0.0180509, No Iterations 2
smoothSolver:  Solving for Uy, Initial residual = 0.0469314, Final residual = 0.00423117, No Iterations 2
smoothSolver:  Solving for Uz, Initial residual = 0.251687, Final residual = 0.0227101, No Iterations 2
GAMG:  Solving for p, Initial residual = 0.52271, Final residual = 0.0389042, No Iterations 3
time step continuity errors : sum local = 0.0413171, global = -0.00258176, cumulative = 0.00771044
smoothSolver:  Solving for epsilon, Initial residual = 0.0108327, Final residual = 0.000372625, No Iterations 2
smoothSolver:  Solving for k, Initial residual = 0.00561237, Final residual = 0.000449888, No Iterations 2
ExecutionTime = 13.0962 s  ClockTime = 13 s

Time = 20s

smoothSolver:  Solving for Ux, Initial residual = 0.188742, Final residual = 0.0165061, No Iterations 2
smoothSolver:  Solving for Uy, Initial residual = 0.0375882, Final residual = 0.00340809, No Iterations 2
smoothSolver:  Solving for Uz, Initial residual = 0.214178, Final residual = 0.0191235, No Iterations 2
GAMG:  Solving for p, Initial residual = 0.508411, Final residual = 0.0387817, No Iterations 3
time step continuity errors : sum local = 0.0375721, global = -0.00195301, cumulative = 0.00575743
smoothSolver:  Solving for epsilon, Initial residual = 0.00814917, Final residual = 0.000357068, No Iterations 2
smoothSolver:  Solving for k, Initial residual = 0.00518186, Final residual = 0.000419667, No Iterations 2
ExecutionTime = 13.7259 s  ClockTime = 14 s

Time = 21s

smoothSolver:  Solving for Ux, Initial residual = 0.168299, Final residual = 0.0131695, No Iterations 2
smoothSolver:  Solving for Uy, Initial residual = 0.0268988, Final residual = 0.00209533, No Iterations 2
smoothSolver:  Solving for Uz, Initial residual = 0.165971, Final residual = 0.0127918, No Iterations 2
GAMG:  Solving for p, Initial residual = 0.49323, Final residual = 0.0370883, No Iterations 3
time step continuity errors : sum local = 0.0331017, global = -0.000801647, cumulative = 0.00495579
smoothSolver:  Solving for epsilon, Initial residual = 0.00789474, Final residual = 0.000347973, No Iterations 2
smoothSolver:  Solving for k, Initial residual = 0.00490639, Final residual = 0.000403829, No Iterations 2
ExecutionTime = 14.3636 s  ClockTime = 15 s

Time = 22s

smoothSolver:  Solving for Ux, Initial residual = 0.168456, Final residual = 0.0138734, No Iterations 2
smoothSolver:  Solving for Uy, Initial residual = 0.0266152, Final residual = 0.00214745, No Iterations 2
smoothSolver:  Solving for Uz, Initial residual = 0.178076, Final residual = 0.0150023, No Iterations 2
GAMG:  Solving for p, Initial residual = 0.502704, Final residual = 0.0355425, No Iterations 3
time step continuity errors : sum local = 0.0316369, global = 4.31411e-05, cumulative = 0.00499893
smoothSolver:  Solving for epsilon, Initial residual = 0.00721312, Final residual = 0.000341831, No Iterations 2
smoothSolver:  Solving for k, Initial residual = 0.00470257, Final residual = 0.000392633, No Iterations 2
ExecutionTime = 15.0092 s  ClockTime = 15 s

Time = 23s

smoothSolver:  Solving for Ux, Initial residual = 0.146302, Final residual = 0.0120431, No Iterations 2
smoothSolver:  Solving for Uy, Initial residual = 0.0225006, Final residual = 0.00189642, No Iterations 2
smoothSolver:  Solving for Uz, Initial residual = 0.146426, Final residual = 0.0122802, No Iterations 2
GAMG:  Solving for p, Initial residual = 0.466402, Final residual = 0.0339167, No Iterations 3
time step continuity errors : sum local = 0.0316371, global = 0.000580357, cumulative = 0.00557928
smoothSolver:  Solving for epsilon, Initial residual = 0.00719396, Final residual = 0.000328716, No Iterations 2
smoothSolver:  Solving for k, Initial residual = 0.00449891, Final residual = 0.000378089, No Iterations 2
ExecutionTime = 15.6589 s  ClockTime = 16 s

Time = 24s

smoothSolver:  Solving for Ux, Initial residual = 0.116626, Final residual = 0.00878567, No Iterations 2
smoothSolver:  Solving for Uy, Initial residual = 0.0179869, Final residual = 0.00137638, No Iterations 2
smoothSolver:  Solving for Uz, Initial residual = 0.116181, Final residual = 0.00859014, No Iterations 2
GAMG:  Solving for p, Initial residual = 0.426908, Final residual = 0.0315967, No Iterations 3
time step continuity errors : sum local = 0.0290972, global = 0.000500857, cumulative = 0.00608014
smoothSolver:  Solving for epsilon, Initial residual = 0.00971518, Final residual = 0.000311695, No Iterations 2
smoothSolver:  Solving for k, Initial residual = 0.00433694, Final residual = 0.000363012, No Iterations 2
bounding k, min: -54.4589 max: 1585.9 average: 20.8142
ExecutionTime = 16.3167 s  ClockTime = 17 s

Time = 25s

smoothSolver:  Solving for Ux, Initial residual = 0.105651, Final residual = 0.00796127, No Iterations 2
smoothSolver:  Solving for Uy, Initial residual = 0.0184549, Final residual = 0.00139057, No Iterations 2
smoothSolver:  Solving for Uz, Initial residual = 0.125822, Final residual = 0.00974448, No Iterations 2
GAMG:  Solving for p, Initial residual = 0.389535, Final residual = 0.0276502, No Iterations 3
time step continuity errors : sum local = 0.024486, global = 0.00010233, cumulative = 0.00618247
smoothSolver:  Solving for epsilon, Initial residual = 0.00733565, Final residual = 0.000295535, No Iterations 2
smoothSolver:  Solving for k, Initial residual = 0.0041262, Final residual = 0.000345344, No Iterations 2
bounding k, min: -0.487147 max: 1901.44 average: 19.3023
ExecutionTime = 17.018 s  ClockTime = 17 s

Time = 26s

smoothSolver:  Solving for Ux, Initial residual = 0.0990394, Final residual = 0.00743338, No Iterations 2
smoothSolver:  Solving for Uy, Initial residual = 0.0179315, Final residual = 0.00133416, No Iterations 2
smoothSolver:  Solving for Uz, Initial residual = 0.113436, Final residual = 0.00871355, No Iterations 2
GAMG:  Solving for p, Initial residual = 0.405549, Final residual = 0.0261594, No Iterations 3
time step continuity errors : sum local = 0.0221373, global = -0.000353143, cumulative = 0.00582933
smoothSolver:  Solving for epsilon, Initial residual = 0.00541412, Final residual = 0.000281917, No Iterations 2
smoothSolver:  Solving for k, Initial residual = 0.00393353, Final residual = 0.000328198, No Iterations 2
ExecutionTime = 17.6448 s  ClockTime = 18 s

Time = 27s

smoothSolver:  Solving for Ux, Initial residual = 0.0894351, Final residual = 0.00641782, No Iterations 2
smoothSolver:  Solving for Uy, Initial residual = 0.0141729, Final residual = 0.000972566, No Iterations 2
smoothSolver:  Solving for Uz, Initial residual = 0.0909498, Final residual = 0.0064076, No Iterations 2
GAMG:  Solving for p, Initial residual = 0.412872, Final residual = 0.0285754, No Iterations 3
time step continuity errors : sum local = 0.0227606, global = -0.00056074, cumulative = 0.00526859
smoothSolver:  Solving for epsilon, Initial residual = 0.0046051, Final residual = 0.000269472, No Iterations 2
smoothSolver:  Solving for k, Initial residual = 0.00377384, Final residual = 0.000314566, No Iterations 2
ExecutionTime = 18.2788 s  ClockTime = 19 s

Time = 28s

smoothSolver:  Solving for Ux, Initial residual = 0.084509, Final residual = 0.00597877, No Iterations 2
smoothSolver:  Solving for Uy, Initial residual = 0.0118051, Final residual = 0.000807019, No Iterations 2
smoothSolver:  Solving for Uz, Initial residual = 0.0887916, Final residual = 0.00631448, No Iterations 2
GAMG:  Solving for p, Initial residual = 0.43712, Final residual = 0.029692, No Iterations 3
time step continuity errors : sum local = 0.0227787, global = -0.000268872, cumulative = 0.00499972
smoothSolver:  Solving for epsilon, Initial residual = 0.00426612, Final residual = 0.000261431, No Iterations 2
smoothSolver:  Solving for k, Initial residual = 0.00365518, Final residual = 0.00030386, No Iterations 2
bounding k, min: -0.950807 max: 547.044 average: 15.6091
ExecutionTime = 18.9166 s  ClockTime = 19 s

Time = 29s

smoothSolver:  Solving for Ux, Initial residual = 0.078127, Final residual = 0.00545371, No Iterations 2
smoothSolver:  Solving for Uy, Initial residual = 0.0110018, Final residual = 0.000795523, No Iterations 2
smoothSolver:  Solving for Uz, Initial residual = 0.0802987, Final residual = 0.00566744, No Iterations 2
GAMG:  Solving for p, Initial residual = 0.412138, Final residual = 0.0283707, No Iterations 3
time step continuity errors : sum local = 0.0207349, global = 3.6092e-05, cumulative = 0.00503581
smoothSolver:  Solving for epsilon, Initial residual = 0.0039079, Final residual = 0.000251288, No Iterations 2
smoothSolver:  Solving for k, Initial residual = 0.00352388, Final residual = 0.000292343, No Iterations 2
bounding k, min: -0.146938 max: 437.928 average: 14.5952
ExecutionTime = 19.5487 s  ClockTime = 20 s

Time = 30s

smoothSolver:  Solving for Ux, Initial residual = 0.0711324, Final residual = 0.00473737, No Iterations 2
smoothSolver:  Solving for Uy, Initial residual = 0.0102904, Final residual = 0.000696767, No Iterations 2
smoothSolver:  Solving for Uz, Initial residual = 0.0716525, Final residual = 0.00473672, No Iterations 2
GAMG:  Solving for p, Initial residual = 0.392631, Final residual = 0.025414, No Iterations 3
time step continuity errors : sum local = 0.0174486, global = 0.000308273, cumulative = 0.00534408
smoothSolver:  Solving for epsilon, Initial residual = 0.00365449, Final residual = 0.00024063, No Iterations 2
smoothSolver:  Solving for k, Initial residual = 0.00341212, Final residual = 0.000281261, No Iterations 2
ExecutionTime = 20.1853 s  ClockTime = 20 s

Time = 31s

smoothSolver:  Solving for Ux, Initial residual = 0.0632716, Final residual = 0.00419097, No Iterations 2
smoothSolver:  Solving for Uy, Initial residual = 0.00959804, Final residual = 0.000608551, No Iterations 2
smoothSolver:  Solving for Uz, Initial residual = 0.0718146, Final residual = 0.00481948, No Iterations 2
GAMG:  Solving for p, Initial residual = 0.359952, Final residual = 0.0228264, No Iterations 3
time step continuity errors : sum local = 0.0164531, global = 0.000481861, cumulative = 0.00582594
smoothSolver:  Solving for epsilon, Initial residual = 0.00343181, Final residual = 0.000229791, No Iterations 2
smoothSolver:  Solving for k, Initial residual = 0.0033082, Final residual = 0.000269742, No Iterations 2
ExecutionTime = 20.8064 s  ClockTime = 21 s

Time = 32s

smoothSolver:  Solving for Ux, Initial residual = 0.0592673, Final residual = 0.00387514, No Iterations 2
smoothSolver:  Solving for Uy, Initial residual = 0.00908018, Final residual = 0.000588235, No Iterations 2
smoothSolver:  Solving for Uz, Initial residual = 0.0662179, Final residual = 0.00441025, No Iterations 2
GAMG:  Solving for p, Initial residual = 0.350452, Final residual = 0.0228495, No Iterations 3
time step continuity errors : sum local = 0.0177223, global = 0.000630044, cumulative = 0.00645599
smoothSolver:  Solving for epsilon, Initial residual = 0.00325223, Final residual = 0.000219334, No Iterations 2
smoothSolver:  Solving for k, Initial residual = 0.0032199, Final residual = 0.000259398, No Iterations 2
ExecutionTime = 21.4464 s  ClockTime = 22 s

Time = 33s

smoothSolver:  Solving for Ux, Initial residual = 0.0555169, Final residual = 0.00356398, No Iterations 2
smoothSolver:  Solving for Uy, Initial residual = 0.00819453, Final residual = 0.000527418, No Iterations 2
smoothSolver:  Solving for Uz, Initial residual = 0.0565974, Final residual = 0.00352367, No Iterations 2
GAMG:  Solving for p, Initial residual = 0.322943, Final residual = 0.0214233, No Iterations 3
time step continuity errors : sum local = 0.0168514, global = 0.000270067, cumulative = 0.00672605
smoothSolver:  Solving for epsilon, Initial residual = 0.00308572, Final residual = 0.000209861, No Iterations 2
smoothSolver:  Solving for k, Initial residual = 0.00314314, Final residual = 0.000249839, No Iterations 2
bounding k, min: -0.209099 max: 297.27 average: 11.3423
ExecutionTime = 22.0922 s  ClockTime = 22 s

Time = 34s

smoothSolver:  Solving for Ux, Initial residual = 0.0534938, Final residual = 0.00337638, No Iterations 2
smoothSolver:  Solving for Uy, Initial residual = 0.00784084, Final residual = 0.000491454, No Iterations 2
smoothSolver:  Solving for Uz, Initial residual = 0.0541495, Final residual = 0.00332984, No Iterations 2
GAMG:  Solving for p, Initial residual = 0.306685, Final residual = 0.0198646, No Iterations 3
time step continuity errors : sum local = 0.0155728, global = -7.74898e-05, cumulative = 0.00664856
smoothSolver:  Solving for epsilon, Initial residual = 0.00294003, Final residual = 0.000201275, No Iterations 2
smoothSolver:  Solving for k, Initial residual = 0.00307174, Final residual = 0.000241503, No Iterations 2
ExecutionTime = 22.7365 s  ClockTime = 23 s

Time = 35s

smoothSolver:  Solving for Ux, Initial residual = 0.0503314, Final residual = 0.00314424, No Iterations 2
smoothSolver:  Solving for Uy, Initial residual = 0.00759176, Final residual = 0.000471046, No Iterations 2
smoothSolver:  Solving for Uz, Initial residual = 0.0531147, Final residual = 0.00328531, No Iterations 2
GAMG:  Solving for p, Initial residual = 0.288913, Final residual = 0.0194883, No Iterations 3
time step continuity errors : sum local = 0.0144934, global = -0.000209988, cumulative = 0.00643858
smoothSolver:  Solving for epsilon, Initial residual = 0.00282786, Final residual = 0.000193012, No Iterations 2
smoothSolver:  Solving for k, Initial residual = 0.00299607, Final residual = 0.000233258, No Iterations 2
ExecutionTime = 23.3766 s  ClockTime = 24 s

Time = 36s

smoothSolver:  Solving for Ux, Initial residual = 0.046939, Final residual = 0.00285882, No Iterations 2
smoothSolver:  Solving for Uy, Initial residual = 0.00733476, Final residual = 0.000448645, No Iterations 2
smoothSolver:  Solving for Uz, Initial residual = 0.0495349, Final residual = 0.00293957, No Iterations 2
GAMG:  Solving for p, Initial residual = 0.310513, Final residual = 0.0193741, No Iterations 3
time step continuity errors : sum local = 0.0136581, global = -0.000433227, cumulative = 0.00600535
smoothSolver:  Solving for epsilon, Initial residual = 0.00271627, Final residual = 0.000184455, No Iterations 2
smoothSolver:  Solving for k, Initial residual = 0.00293157, Final residual = 0.000225183, No Iterations 2
ExecutionTime = 24.0119 s  ClockTime = 24 s

Time = 37s

smoothSolver:  Solving for Ux, Initial residual = 0.0430738, Final residual = 0.00261449, No Iterations 2
smoothSolver:  Solving for Uy, Initial residual = 0.00703302, Final residual = 0.000427674, No Iterations 2
smoothSolver:  Solving for Uz, Initial residual = 0.046692, Final residual = 0.00276196, No Iterations 2
GAMG:  Solving for p, Initial residual = 0.317684, Final residual = 0.020381, No Iterations 3
time step continuity errors : sum local = 0.0138664, global = -0.000465935, cumulative = 0.00553942
smoothSolver:  Solving for epsilon, Initial residual = 0.00259556, Final residual = 0.000175872, No Iterations 2
smoothSolver:  Solving for k, Initial residual = 0.00286105, Final residual = 0.000216736, No Iterations 2
ExecutionTime = 24.6329 s  ClockTime = 25 s

Time = 38s

smoothSolver:  Solving for Ux, Initial residual = 0.0417926, Final residual = 0.00252371, No Iterations 2
smoothSolver:  Solving for Uy, Initial residual = 0.00675788, Final residual = 0.000412521, No Iterations 2
smoothSolver:  Solving for Uz, Initial residual = 0.044239, Final residual = 0.00255027, No Iterations 2
GAMG:  Solving for p, Initial residual = 0.328355, Final residual = 0.0210158, No Iterations 3
time step continuity errors : sum local = 0.0137349, global = -0.000200711, cumulative = 0.0053387
smoothSolver:  Solving for epsilon, Initial residual = 0.00247471, Final residual = 0.000167699, No Iterations 2
smoothSolver:  Solving for k, Initial residual = 0.00278676, Final residual = 0.000208351, No Iterations 2
ExecutionTime = 25.2642 s  ClockTime = 26 s

Time = 39s

smoothSolver:  Solving for Ux, Initial residual = 0.0407929, Final residual = 0.0024748, No Iterations 2
smoothSolver:  Solving for Uy, Initial residual = 0.00642112, Final residual = 0.000384444, No Iterations 2
smoothSolver:  Solving for Uz, Initial residual = 0.0419894, Final residual = 0.0023848, No Iterations 2
GAMG:  Solving for p, Initial residual = 0.305088, Final residual = 0.0199275, No Iterations 3
time step continuity errors : sum local = 0.0126378, global = 3.31808e-05, cumulative = 0.00537189
smoothSolver:  Solving for epsilon, Initial residual = 0.00237553, Final residual = 0.000159983, No Iterations 2
smoothSolver:  Solving for k, Initial residual = 0.00271339, Final residual = 0.000200693, No Iterations 2
ExecutionTime = 25.8875 s  ClockTime = 26 s

Time = 40s

smoothSolver:  Solving for Ux, Initial residual = 0.040043, Final residual = 0.00243265, No Iterations 2
smoothSolver:  Solving for Uy, Initial residual = 0.00592488, Final residual = 0.000342999, No Iterations 2
smoothSolver:  Solving for Uz, Initial residual = 0.0406558, Final residual = 0.00228898, No Iterations 2
GAMG:  Solving for p, Initial residual = 0.29762, Final residual = 0.0195393, No Iterations 3
time step continuity errors : sum local = 0.0120709, global = 0.000167811, cumulative = 0.0055397
smoothSolver:  Solving for epsilon, Initial residual = 0.00229962, Final residual = 0.000152671, No Iterations 2
smoothSolver:  Solving for k, Initial residual = 0.00265625, Final residual = 0.000193641, No Iterations 2
ExecutionTime = 26.5258 s  ClockTime = 27 s

Time = 41s

smoothSolver:  Solving for Ux, Initial residual = 0.0377094, Final residual = 0.00225563, No Iterations 2
smoothSolver:  Solving for Uy, Initial residual = 0.00586327, Final residual = 0.000339603, No Iterations 2
smoothSolver:  Solving for Uz, Initial residual = 0.0394445, Final residual = 0.00222368, No Iterations 2
GAMG:  Solving for p, Initial residual = 0.278318, Final residual = 0.0185598, No Iterations 3
time step continuity errors : sum local = 0.011936, global = 0.000351753, cumulative = 0.00589145
smoothSolver:  Solving for epsilon, Initial residual = 0.00224283, Final residual = 0.000145754, No Iterations 2
smoothSolver:  Solving for k, Initial residual = 0.0026054, Final residual = 0.0001872, No Iterations 2
ExecutionTime = 27.1691 s  ClockTime = 27 s

Time = 42s

smoothSolver:  Solving for Ux, Initial residual = 0.0355508, Final residual = 0.00210793, No Iterations 2
smoothSolver:  Solving for Uy, Initial residual = 0.00570044, Final residual = 0.000329615, No Iterations 2
smoothSolver:  Solving for Uz, Initial residual = 0.0378601, Final residual = 0.00212164, No Iterations 2
GAMG:  Solving for p, Initial residual = 0.279643, Final residual = 0.0178063, No Iterations 3
time step continuity errors : sum local = 0.0117116, global = 0.000414755, cumulative = 0.0063062
smoothSolver:  Solving for epsilon, Initial residual = 0.00217791, Final residual = 0.000139014, No Iterations 2
smoothSolver:  Solving for k, Initial residual = 0.00255871, Final residual = 0.000181001, No Iterations 2
bounding k, min: -0.154005 max: 180.913 average: 6.9421
ExecutionTime = 27.8646 s  ClockTime = 28 s

Time = 43s

smoothSolver:  Solving for Ux, Initial residual = 0.0338931, Final residual = 0.00199145, No Iterations 2
smoothSolver:  Solving for Uy, Initial residual = 0.00534713, Final residual = 0.000305158, No Iterations 2
smoothSolver:  Solving for Uz, Initial residual = 0.0367384, Final residual = 0.00202903, No Iterations 2
GAMG:  Solving for p, Initial residual = 0.261813, Final residual = 0.0164363, No Iterations 3
time step continuity errors : sum local = 0.0109586, global = 0.000330992, cumulative = 0.0066372
smoothSolver:  Solving for epsilon, Initial residual = 0.00208034, Final residual = 0.000132324, No Iterations 2
smoothSolver:  Solving for k, Initial residual = 0.00250669, Final residual = 0.000174718, No Iterations 2
ExecutionTime = 28.4836 s  ClockTime = 29 s

Time = 44s

smoothSolver:  Solving for Ux, Initial residual = 0.0335648, Final residual = 0.00198918, No Iterations 2
smoothSolver:  Solving for Uy, Initial residual = 0.00510146, Final residual = 0.000287398, No Iterations 2
smoothSolver:  Solving for Uz, Initial residual = 0.0356582, Final residual = 0.00193812, No Iterations 2
GAMG:  Solving for p, Initial residual = 0.24229, Final residual = 0.0154628, No Iterations 3
time step continuity errors : sum local = 0.0102793, global = 9.17711e-05, cumulative = 0.00672897
smoothSolver:  Solving for epsilon, Initial residual = 0.0020076, Final residual = 0.000125973, No Iterations 2
smoothSolver:  Solving for k, Initial residual = 0.00246269, Final residual = 0.000168857, No Iterations 2
ExecutionTime = 29.1018 s  ClockTime = 29 s

Time = 45s

smoothSolver:  Solving for Ux, Initial residual = 0.033198, Final residual = 0.00196678, No Iterations 2
smoothSolver:  Solving for Uy, Initial residual = 0.00502416, Final residual = 0.000279799, No Iterations 2
smoothSolver:  Solving for Uz, Initial residual = 0.0340844, Final residual = 0.00187195, No Iterations 2
GAMG:  Solving for p, Initial residual = 0.23862, Final residual = 0.0156226, No Iterations 3
time step continuity errors : sum local = 0.0101646, global = -5.94122e-05, cumulative = 0.00666956
smoothSolver:  Solving for epsilon, Initial residual = 0.0019794, Final residual = 0.000119638, No Iterations 2
smoothSolver:  Solving for k, Initial residual = 0.00242479, Final residual = 0.000163323, No Iterations 2
bounding k, min: -0.496941 max: 154.924 average: 6.00654
ExecutionTime = 29.7372 s  ClockTime = 30 s

Time = 46s

smoothSolver:  Solving for Ux, Initial residual = 0.0315569, Final residual = 0.00187657, No Iterations 2
smoothSolver:  Solving for Uy, Initial residual = 0.00486794, Final residual = 0.000276725, No Iterations 2
smoothSolver:  Solving for Uz, Initial residual = 0.0322756, Final residual = 0.00175907, No Iterations 2
GAMG:  Solving for p, Initial residual = 0.256142, Final residual = 0.0157726, No Iterations 3
time step continuity errors : sum local = 0.00983639, global = -0.000213643, cumulative = 0.00645591
smoothSolver:  Solving for epsilon, Initial residual = 0.00192023, Final residual = 0.00011372, No Iterations 2
smoothSolver:  Solving for k, Initial residual = 0.00238528, Final residual = 0.000157603, No Iterations 2
ExecutionTime = 30.3734 s  ClockTime = 31 s

Time = 47s

smoothSolver:  Solving for Ux, Initial residual = 0.0298899, Final residual = 0.00175671, No Iterations 2
smoothSolver:  Solving for Uy, Initial residual = 0.00477096, Final residual = 0.000273327, No Iterations 2
smoothSolver:  Solving for Uz, Initial residual = 0.0314832, Final residual = 0.00170321, No Iterations 2
GAMG:  Solving for p, Initial residual = 0.260029, Final residual = 0.0162616, No Iterations 3
time step continuity errors : sum local = 0.0097821, global = -0.000343546, cumulative = 0.00611237
smoothSolver:  Solving for epsilon, Initial residual = 0.00183243, Final residual = 0.000107868, No Iterations 2
smoothSolver:  Solving for k, Initial residual = 0.0023467, Final residual = 0.000152228, No Iterations 2
ExecutionTime = 30.9968 s  ClockTime = 31 s

Time = 48s

smoothSolver:  Solving for Ux, Initial residual = 0.0286299, Final residual = 0.0016828, No Iterations 2
smoothSolver:  Solving for Uy, Initial residual = 0.00466028, Final residual = 0.000266216, No Iterations 2
smoothSolver:  Solving for Uz, Initial residual = 0.0308384, Final residual = 0.00165449, No Iterations 2
GAMG:  Solving for p, Initial residual = 0.248899, Final residual = 0.0153879, No Iterations 3
time step continuity errors : sum local = 0.00901447, global = -0.000363434, cumulative = 0.00574893
smoothSolver:  Solving for epsilon, Initial residual = 0.00175708, Final residual = 0.000102269, No Iterations 2
smoothSolver:  Solving for k, Initial residual = 0.00230736, Final residual = 0.00014677, No Iterations 2
ExecutionTime = 31.6207 s  ClockTime = 32 s

Time = 49s

smoothSolver:  Solving for Ux, Initial residual = 0.0285067, Final residual = 0.00166817, No Iterations 2
smoothSolver:  Solving for Uy, Initial residual = 0.00451202, Final residual = 0.000254404, No Iterations 2
smoothSolver:  Solving for Uz, Initial residual = 0.0300633, Final residual = 0.00162654, No Iterations 2
GAMG:  Solving for p, Initial residual = 0.240918, Final residual = 0.0151684, No Iterations 3
time step continuity errors : sum local = 0.00881898, global = -0.000303619, cumulative = 0.00544531
smoothSolver:  Solving for epsilon, Initial residual = 0.0017339, Final residual = 9.70125e-05, No Iterations 2
smoothSolver:  Solving for k, Initial residual = 0.00227709, Final residual = 0.000141616, No Iterations 2
bounding k, min: -0.622593 max: 126.53 average: 5.01871
ExecutionTime = 32.2661 s  ClockTime = 33 s

Time = 50s

smoothSolver:  Solving for Ux, Initial residual = 0.0279894, Final residual = 0.00164979, No Iterations 2
smoothSolver:  Solving for Uy, Initial residual = 0.0043496, Final residual = 0.000242727, No Iterations 2
smoothSolver:  Solving for Uz, Initial residual = 0.0290107, Final residual = 0.0015609, No Iterations 2
GAMG:  Solving for p, Initial residual = 0.24189, Final residual = 0.0151421, No Iterations 3
time step continuity errors : sum local = 0.00875012, global = -0.000134092, cumulative = 0.00531122
smoothSolver:  Solving for epsilon, Initial residual = 0.00172893, Final residual = 9.17964e-05, No Iterations 2
smoothSolver:  Solving for k, Initial residual = 0.0022479, Final residual = 0.000136395, No Iterations 2
ExecutionTime = 32.91 s  ClockTime = 33 s

Time = 51s

smoothSolver:  Solving for Ux, Initial residual = 0.0271474, Final residual = 0.00159488, No Iterations 2
smoothSolver:  Solving for Uy, Initial residual = 0.00430267, Final residual = 0.000236796, No Iterations 2
smoothSolver:  Solving for Uz, Initial residual = 0.0281013, Final residual = 0.00151369, No Iterations 2
GAMG:  Solving for p, Initial residual = 0.242552, Final residual = 0.0149567, No Iterations 3
time step continuity errors : sum local = 0.00866483, global = 2.0349e-05, cumulative = 0.00533157
smoothSolver:  Solving for epsilon, Initial residual = 0.00170507, Final residual = 8.67872e-05, No Iterations 2
smoothSolver:  Solving for k, Initial residual = 0.00221872, Final residual = 0.000131306, No Iterations 2
ExecutionTime = 33.5548 s  ClockTime = 34 s

Time = 52s

smoothSolver:  Solving for Ux, Initial residual = 0.0259376, Final residual = 0.00152327, No Iterations 2
smoothSolver:  Solving for Uy, Initial residual = 0.00421522, Final residual = 0.000230006, No Iterations 2
smoothSolver:  Solving for Uz, Initial residual = 0.0274673, Final residual = 0.00145885, No Iterations 2
GAMG:  Solving for p, Initial residual = 0.228321, Final residual = 0.0140055, No Iterations 3
time step continuity errors : sum local = 0.00816333, global = 0.000172687, cumulative = 0.00550426
smoothSolver:  Solving for epsilon, Initial residual = 0.00161891, Final residual = 8.19775e-05, No Iterations 2
smoothSolver:  Solving for k, Initial residual = 0.0021834, Final residual = 0.000126471, No Iterations 2
ExecutionTime = 34.1767 s  ClockTime = 34 s

Time = 53s

smoothSolver:  Solving for Ux, Initial residual = 0.025715, Final residual = 0.00148447, No Iterations 2
smoothSolver:  Solving for Uy, Initial residual = 0.00409743, Final residual = 0.000223771, No Iterations 2
smoothSolver:  Solving for Uz, Initial residual = 0.0267608, Final residual = 0.00141512, No Iterations 2
GAMG:  Solving for p, Initial residual = 0.2172, Final residual = 0.0131473, No Iterations 3
time step continuity errors : sum local = 0.00776362, global = 0.000285012, cumulative = 0.00578927
smoothSolver:  Solving for epsilon, Initial residual = 0.00155724, Final residual = 7.72155e-05, No Iterations 2
smoothSolver:  Solving for k, Initial residual = 0.00215031, Final residual = 0.000121529, No Iterations 2
ExecutionTime = 34.7871 s  ClockTime = 35 s

Time = 54s

smoothSolver:  Solving for Ux, Initial residual = 0.0249197, Final residual = 0.0014365, No Iterations 2
smoothSolver:  Solving for Uy, Initial residual = 0.00399437, Final residual = 0.000216861, No Iterations 2
smoothSolver:  Solving for Uz, Initial residual = 0.0261148, Final residual = 0.00137917, No Iterations 2
GAMG:  Solving for p, Initial residual = 0.212344, Final residual = 0.0129403, No Iterations 3
time step continuity errors : sum local = 0.00758551, global = 0.000316314, cumulative = 0.00610558
smoothSolver:  Solving for epsilon, Initial residual = 0.00158683, Final residual = 7.26793e-05, No Iterations 2
smoothSolver:  Solving for k, Initial residual = 0.00212445, Final residual = 0.000117041, No Iterations 2
bounding k, min: -0.603961 max: 98.8388 average: 4.10604
ExecutionTime = 35.4266 s  ClockTime = 36 s

Time = 55s

smoothSolver:  Solving for Ux, Initial residual = 0.0241524, Final residual = 0.00140889, No Iterations 2
smoothSolver:  Solving for Uy, Initial residual = 0.00382829, Final residual = 0.000205999, No Iterations 2
smoothSolver:  Solving for Uz, Initial residual = 0.025052, Final residual = 0.00134441, No Iterations 2
GAMG:  Solving for p, Initial residual = 0.216305, Final residual = 0.0133991, No Iterations 3
time step continuity errors : sum local = 0.00779506, global = 0.000279435, cumulative = 0.00638502
smoothSolver:  Solving for epsilon, Initial residual = 0.00158434, Final residual = 6.83727e-05, No Iterations 2
smoothSolver:  Solving for k, Initial residual = 0.00209631, Final residual = 0.000112194, No Iterations 2
ExecutionTime = 36.0581 s  ClockTime = 36 s

Time = 56s

smoothSolver:  Solving for Ux, Initial residual = 0.0234495, Final residual = 0.00136103, No Iterations 2
smoothSolver:  Solving for Uy, Initial residual = 0.00362624, Final residual = 0.000197662, No Iterations 2
smoothSolver:  Solving for Uz, Initial residual = 0.0249865, Final residual = 0.00130973, No Iterations 2
GAMG:  Solving for p, Initial residual = 0.214753, Final residual = 0.0130984, No Iterations 3
time step continuity errors : sum local = 0.00757759, global = 0.000193975, cumulative = 0.00657899
smoothSolver:  Solving for epsilon, Initial residual = 0.00151582, Final residual = 6.41828e-05, No Iterations 2
smoothSolver:  Solving for k, Initial residual = 0.00206788, Final residual = 0.000107769, No Iterations 2
bounding k, min: -0.736622 max: 89.5797 average: 3.8205
ExecutionTime = 36.6965 s  ClockTime = 37 s

Time = 57s

smoothSolver:  Solving for Ux, Initial residual = 0.023586, Final residual = 0.00135157, No Iterations 2
smoothSolver:  Solving for Uy, Initial residual = 0.00341988, Final residual = 0.000189932, No Iterations 2
smoothSolver:  Solving for Uz, Initial residual = 0.0244474, Final residual = 0.00128267, No Iterations 2
GAMG:  Solving for p, Initial residual = 0.211972, Final residual = 0.0210351, No Iterations 2
time step continuity errors : sum local = 0.0121236, global = 7.41796e-05, cumulative = 0.00665317
smoothSolver:  Solving for epsilon, Initial residual = 0.00142701, Final residual = 6.00411e-05, No Iterations 2
smoothSolver:  Solving for k, Initial residual = 0.00203213, Final residual = 0.000102851, No Iterations 2
ExecutionTime = 37.3032 s  ClockTime = 38 s

Time = 58s

smoothSolver:  Solving for Ux, Initial residual = 0.022592, Final residual = 0.00127296, No Iterations 2
smoothSolver:  Solving for Uy, Initial residual = 0.00326276, Final residual = 0.000179488, No Iterations 2
smoothSolver:  Solving for Uz, Initial residual = 0.0231784, Final residual = 0.00121014, No Iterations 2
GAMG:  Solving for p, Initial residual = 0.204604, Final residual = 0.0126945, No Iterations 3
time step continuity errors : sum local = 0.00720126, global = -6.06344e-05, cumulative = 0.00659254
smoothSolver:  Solving for epsilon, Initial residual = 0.00143442, Final residual = 5.61555e-05, No Iterations 2
smoothSolver:  Solving for k, Initial residual = 0.0020082, Final residual = 9.88579e-05, No Iterations 2
ExecutionTime = 37.9411 s  ClockTime = 38 s

Time = 59s

smoothSolver:  Solving for Ux, Initial residual = 0.0223716, Final residual = 0.00130452, No Iterations 2
smoothSolver:  Solving for Uy, Initial residual = 0.00320773, Final residual = 0.000174628, No Iterations 2
smoothSolver:  Solving for Uz, Initial residual = 0.0229133, Final residual = 0.00120489, No Iterations 2
GAMG:  Solving for p, Initial residual = 0.203861, Final residual = 0.0200638, No Iterations 2
time step continuity errors : sum local = 0.011266, global = -0.000187402, cumulative = 0.00640514
smoothSolver:  Solving for epsilon, Initial residual = 0.00147028, Final residual = 5.26132e-05, No Iterations 2
smoothSolver:  Solving for k, Initial residual = 0.00198714, Final residual = 9.45121e-05, No Iterations 2
bounding k, min: -0.44803 max: 77.2481 average: 3.46115
ExecutionTime = 38.6596 s  ClockTime = 39 s

Time = 60s

smoothSolver:  Solving for Ux, Initial residual = 0.0216234, Final residual = 0.0012481, No Iterations 2
smoothSolver:  Solving for Uy, Initial residual = 0.00313919, Final residual = 0.000171896, No Iterations 2
smoothSolver:  Solving for Uz, Initial residual = 0.0228535, Final residual = 0.00118669, No Iterations 2
GAMG:  Solving for p, Initial residual = 0.206545, Final residual = 0.0123407, No Iterations 3
time step continuity errors : sum local = 0.00697464, global = -0.00025483, cumulative = 0.00615031
smoothSolver:  Solving for epsilon, Initial residual = 0.00147602, Final residual = 4.90703e-05, No Iterations 2
smoothSolver:  Solving for k, Initial residual = 0.00196672, Final residual = 9.05486e-05, No Iterations 2
ExecutionTime = 39.2927 s  ClockTime = 40 s

Time = 61s

smoothSolver:  Solving for Ux, Initial residual = 0.0216594, Final residual = 0.00124747, No Iterations 2
smoothSolver:  Solving for Uy, Initial residual = 0.00309185, Final residual = 0.000168545, No Iterations 2
smoothSolver:  Solving for Uz, Initial residual = 0.0226523, Final residual = 0.00118878, No Iterations 2
GAMG:  Solving for p, Initial residual = 0.206096, Final residual = 0.0196895, No Iterations 2
time step continuity errors : sum local = 0.0110779, global = -0.000315626, cumulative = 0.00583468
smoothSolver:  Solving for epsilon, Initial residual = 0.00137154, Final residual = 4.55441e-05, No Iterations 2
smoothSolver:  Solving for k, Initial residual = 0.00193023, Final residual = 8.64218e-05, No Iterations 2
ExecutionTime = 39.9113 s  ClockTime = 40 s

Time = 62s

smoothSolver:  Solving for Ux, Initial residual = 0.0213647, Final residual = 0.0012056, No Iterations 2
smoothSolver:  Solving for Uy, Initial residual = 0.00300826, Final residual = 0.000163366, No Iterations 2
smoothSolver:  Solving for Uz, Initial residual = 0.0220049, Final residual = 0.00114836, No Iterations 2
GAMG:  Solving for p, Initial residual = 0.199575, Final residual = 0.0120769, No Iterations 3
time step continuity errors : sum local = 0.00673284, global = -0.000263271, cumulative = 0.00557141
smoothSolver:  Solving for epsilon, Initial residual = 0.00130321, Final residual = 4.23605e-05, No Iterations 2
smoothSolver:  Solving for k, Initial residual = 0.00190104, Final residual = 8.28501e-05, No Iterations 2
ExecutionTime = 40.5379 s  ClockTime = 41 s

Time = 63s

smoothSolver:  Solving for Ux, Initial residual = 0.0208879, Final residual = 0.00119997, No Iterations 2
smoothSolver:  Solving for Uy, Initial residual = 0.00296531, Final residual = 0.000160592, No Iterations 2
smoothSolver:  Solving for Uz, Initial residual = 0.0214748, Final residual = 0.00113571, No Iterations 2
GAMG:  Solving for p, Initial residual = 0.194312, Final residual = 0.0183066, No Iterations 2
time step continuity errors : sum local = 0.0100882, global = -0.000239772, cumulative = 0.00533164
smoothSolver:  Solving for epsilon, Initial residual = 0.00134007, Final residual = 3.9453e-05, No Iterations 2
smoothSolver:  Solving for k, Initial residual = 0.0018782, Final residual = 7.91468e-05, No Iterations 2
ExecutionTime = 41.1434 s  ClockTime = 41 s

Time = 64s

smoothSolver:  Solving for Ux, Initial residual = 0.0198805, Final residual = 0.00113261, No Iterations 2
smoothSolver:  Solving for Uy, Initial residual = 0.00284094, Final residual = 0.000153862, No Iterations 2
smoothSolver:  Solving for Uz, Initial residual = 0.0212922, Final residual = 0.00109889, No Iterations 2
GAMG:  Solving for p, Initial residual = 0.19648, Final residual = 0.0191589, No Iterations 2
time step continuity errors : sum local = 0.0106366, global = -0.000167852, cumulative = 0.00516379
smoothSolver:  Solving for epsilon, Initial residual = 0.0013976, Final residual = 3.66894e-05, No Iterations 2
smoothSolver:  Solving for k, Initial residual = 0.00185939, Final residual = 7.56751e-05, No Iterations 2
ExecutionTime = 41.7623 s  ClockTime = 42 s

Time = 65s

smoothSolver:  Solving for Ux, Initial residual = 0.0195294, Final residual = 0.00112202, No Iterations 2
smoothSolver:  Solving for Uy, Initial residual = 0.00277328, Final residual = 0.000148056, No Iterations 2
smoothSolver:  Solving for Uz, Initial residual = 0.0207242, Final residual = 0.00105196, No Iterations 2
GAMG:  Solving for p, Initial residual = 0.201856, Final residual = 0.0188692, No Iterations 2
time step continuity errors : sum local = 0.0103995, global = -7.95737e-05, cumulative = 0.00508421
smoothSolver:  Solving for epsilon, Initial residual = 0.00135949, Final residual = 3.39184e-05, No Iterations 2
smoothSolver:  Solving for k, Initial residual = 0.00183042, Final residual = 7.21568e-05, No Iterations 2
ExecutionTime = 42.3923 s  ClockTime = 43 s

Time = 66s

smoothSolver:  Solving for Ux, Initial residual = 0.0195064, Final residual = 0.00110815, No Iterations 2
smoothSolver:  Solving for Uy, Initial residual = 0.00272272, Final residual = 0.000147791, No Iterations 2
smoothSolver:  Solving for Uz, Initial residual = 0.0204306, Final residual = 0.00105271, No Iterations 2
GAMG:  Solving for p, Initial residual = 0.197909, Final residual = 0.0183869, No Iterations 2
time step continuity errors : sum local = 0.0100646, global = 1.11949e-05, cumulative = 0.00509541
smoothSolver:  Solving for epsilon, Initial residual = 0.00124362, Final residual = 3.13519e-05, No Iterations 2
smoothSolver:  Solving for k, Initial residual = 0.00179906, Final residual = 6.89225e-05, No Iterations 2
ExecutionTime = 43.0043 s  ClockTime = 43 s

Time = 67s

smoothSolver:  Solving for Ux, Initial residual = 0.0193614, Final residual = 0.00108941, No Iterations 2
smoothSolver:  Solving for Uy, Initial residual = 0.00272778, Final residual = 0.000147804, No Iterations 2
smoothSolver:  Solving for Uz, Initial residual = 0.0200823, Final residual = 0.00104144, No Iterations 2
GAMG:  Solving for p, Initial residual = 0.192757, Final residual = 0.0168877, No Iterations 2
time step continuity errors : sum local = 0.00913217, global = 9.90066e-05, cumulative = 0.00519441
smoothSolver:  Solving for epsilon, Initial residual = 0.00119792, Final residual = 2.89838e-05, No Iterations 2
smoothSolver:  Solving for k, Initial residual = 0.00176788, Final residual = 6.57192e-05, No Iterations 2
ExecutionTime = 43.6232 s  ClockTime = 44 s

Time = 68s

smoothSolver:  Solving for Ux, Initial residual = 0.0186935, Final residual = 0.0010577, No Iterations 2
smoothSolver:  Solving for Uy, Initial residual = 0.00265757, Final residual = 0.000145224, No Iterations 2
smoothSolver:  Solving for Uz, Initial residual = 0.0200429, Final residual = 0.00104431, No Iterations 2
GAMG:  Solving for p, Initial residual = 0.186701, Final residual = 0.0164209, No Iterations 2
time step continuity errors : sum local = 0.0089396, global = 0.000173528, cumulative = 0.00536794
smoothSolver:  Solving for epsilon, Initial residual = 0.00127956, Final residual = 0.000126584, No Iterations 1
smoothSolver:  Solving for k, Initial residual = 0.00175247, Final residual = 6.33023e-05, No Iterations 2
ExecutionTime = 44.2254 s  ClockTime = 45 s

Time = 69s

smoothSolver:  Solving for Ux, Initial residual = 0.0181887, Final residual = 0.00104371, No Iterations 2
smoothSolver:  Solving for Uy, Initial residual = 0.00261465, Final residual = 0.000141691, No Iterations 2
smoothSolver:  Solving for Uz, Initial residual = 0.0198196, Final residual = 0.00103651, No Iterations 2
GAMG:  Solving for p, Initial residual = 0.187149, Final residual = 0.0167085, No Iterations 2
time step continuity errors : sum local = 0.00914527, global = 0.000230063, cumulative = 0.00559801
smoothSolver:  Solving for epsilon, Initial residual = 0.00132576, Final residual = 0.000122046, No Iterations 1
smoothSolver:  Solving for k, Initial residual = 0.00174067, Final residual = 6.06232e-05, No Iterations 2
ExecutionTime = 44.8259 s  ClockTime = 45 s

Time = 70s

smoothSolver:  Solving for Ux, Initial residual = 0.0182697, Final residual = 0.00103853, No Iterations 2
smoothSolver:  Solving for Uy, Initial residual = 0.00248747, Final residual = 0.000135134, No Iterations 2
smoothSolver:  Solving for Uz, Initial residual = 0.0193666, Final residual = 0.00102301, No Iterations 2
GAMG:  Solving for p, Initial residual = 0.18588, Final residual = 0.0169398, No Iterations 2
time step continuity errors : sum local = 0.00925363, global = 0.000267286, cumulative = 0.00586529
smoothSolver:  Solving for epsilon, Initial residual = 0.00127776, Final residual = 0.000117561, No Iterations 1
smoothSolver:  Solving for k, Initial residual = 0.00171709, Final residual = 5.82329e-05, No Iterations 2
ExecutionTime = 45.4735 s  ClockTime = 46 s

Time = 71s

smoothSolver:  Solving for Ux, Initial residual = 0.0184592, Final residual = 0.00104882, No Iterations 2
smoothSolver:  Solving for Uy, Initial residual = 0.00231214, Final residual = 0.000127208, No Iterations 2
smoothSolver:  Solving for Uz, Initial residual = 0.0189693, Final residual = 0.000991973, No Iterations 2
GAMG:  Solving for p, Initial residual = 0.188033, Final residual = 0.0161776, No Iterations 2
time step continuity errors : sum local = 0.00878175, global = 0.000271684, cumulative = 0.00613698
smoothSolver:  Solving for epsilon, Initial residual = 0.00118115, Final residual = 0.000111671, No Iterations 1
smoothSolver:  Solving for k, Initial residual = 0.00168532, Final residual = 5.5715e-05, No Iterations 2
ExecutionTime = 46.1028 s  ClockTime = 46 s

Time = 72s

smoothSolver:  Solving for Ux, Initial residual = 0.017961, Final residual = 0.0010249, No Iterations 2
smoothSolver:  Solving for Uy, Initial residual = 0.00223765, Final residual = 0.00012435, No Iterations 2
smoothSolver:  Solving for Uz, Initial residual = 0.018455, Final residual = 0.000971376, No Iterations 2
GAMG:  Solving for p, Initial residual = 0.177627, Final residual = 0.0152269, No Iterations 2
time step continuity errors : sum local = 0.0082617, global = 0.000246944, cumulative = 0.00638392
smoothSolver:  Solving for epsilon, Initial residual = 0.0011671, Final residual = 0.000107066, No Iterations 1
smoothSolver:  Solving for k, Initial residual = 0.00165751, Final residual = 5.36063e-05, No Iterations 2
ExecutionTime = 46.7337 s  ClockTime = 47 s

Time = 73s

smoothSolver:  Solving for Ux, Initial residual = 0.0171947, Final residual = 0.000995068, No Iterations 2
smoothSolver:  Solving for Uy, Initial residual = 0.00220623, Final residual = 0.000122434, No Iterations 2
smoothSolver:  Solving for Uz, Initial residual = 0.0186293, Final residual = 0.00097022, No Iterations 2
GAMG:  Solving for p, Initial residual = 0.169325, Final residual = 0.0146418, No Iterations 2
time step continuity errors : sum local = 0.00799612, global = 0.000198828, cumulative = 0.00658275
smoothSolver:  Solving for epsilon, Initial residual = 0.00127688, Final residual = 0.000103636, No Iterations 1
smoothSolver:  Solving for k, Initial residual = 0.00164516, Final residual = 5.14354e-05, No Iterations 2
ExecutionTime = 47.3607 s  ClockTime = 48 s

Time = 74s

smoothSolver:  Solving for Ux, Initial residual = 0.0173298, Final residual = 0.000995143, No Iterations 2
smoothSolver:  Solving for Uy, Initial residual = 0.00222217, Final residual = 0.000121648, No Iterations 2
smoothSolver:  Solving for Uz, Initial residual = 0.0178606, Final residual = 0.000952886, No Iterations 2
GAMG:  Solving for p, Initial residual = 0.175305, Final residual = 0.014813, No Iterations 2
time step continuity errors : sum local = 0.00808642, global = 0.000130708, cumulative = 0.00671346
smoothSolver:  Solving for epsilon, Initial residual = 0.00133734, Final residual = 9.94937e-05, No Iterations 1
smoothSolver:  Solving for k, Initial residual = 0.00162597, Final residual = 4.96108e-05, No Iterations 2
ExecutionTime = 47.9796 s  ClockTime = 48 s

Time = 75s

smoothSolver:  Solving for Ux, Initial residual = 0.0172549, Final residual = 0.000975379, No Iterations 2
smoothSolver:  Solving for Uy, Initial residual = 0.00213013, Final residual = 0.00011698, No Iterations 2
smoothSolver:  Solving for Uz, Initial residual = 0.017714, Final residual = 0.000933653, No Iterations 2
GAMG:  Solving for p, Initial residual = 0.177953, Final residual = 0.0144559, No Iterations 2
time step continuity errors : sum local = 0.00781136, global = 5.37364e-05, cumulative = 0.00676719
smoothSolver:  Solving for epsilon, Initial residual = 0.0012062, Final residual = 9.2876e-05, No Iterations 1
smoothSolver:  Solving for k, Initial residual = 0.00159219, Final residual = 4.77256e-05, No Iterations 2
ExecutionTime = 48.5974 s  ClockTime = 49 s

Time = 76s

smoothSolver:  Solving for Ux, Initial residual = 0.0170629, Final residual = 0.000965868, No Iterations 2
smoothSolver:  Solving for Uy, Initial residual = 0.00205902, Final residual = 0.000111885, No Iterations 2
smoothSolver:  Solving for Uz, Initial residual = 0.0171735, Final residual = 0.000927799, No Iterations 2
GAMG:  Solving for p, Initial residual = 0.170954, Final residual = 0.01456, No Iterations 2
time step continuity errors : sum local = 0.00785912, global = -2.47054e-05, cumulative = 0.00674249
smoothSolver:  Solving for epsilon, Initial residual = 0.0011103, Final residual = 8.71148e-05, No Iterations 1
smoothSolver:  Solving for k, Initial residual = 0.00156204, Final residual = 4.59796e-05, No Iterations 2
ExecutionTime = 49.2388 s  ClockTime = 50 s

Time = 77s

smoothSolver:  Solving for Ux, Initial residual = 0.016483, Final residual = 0.000943849, No Iterations 2
smoothSolver:  Solving for Uy, Initial residual = 0.00198586, Final residual = 0.000108697, No Iterations 2
smoothSolver:  Solving for Uz, Initial residual = 0.0174253, Final residual = 0.000924006, No Iterations 2
GAMG:  Solving for p, Initial residual = 0.162135, Final residual = 0.0141083, No Iterations 2
time step continuity errors : sum local = 0.00767302, global = -9.59194e-05, cumulative = 0.00664657
smoothSolver:  Solving for epsilon, Initial residual = 0.00115818, Final residual = 8.34623e-05, No Iterations 1
smoothSolver:  Solving for k, Initial residual = 0.00153902, Final residual = 4.44147e-05, No Iterations 2
ExecutionTime = 49.8597 s  ClockTime = 50 s

Time = 78s

smoothSolver:  Solving for Ux, Initial residual = 0.0168442, Final residual = 0.000957393, No Iterations 2
smoothSolver:  Solving for Uy, Initial residual = 0.00196479, Final residual = 0.00010856, No Iterations 2
smoothSolver:  Solving for Uz, Initial residual = 0.0170367, Final residual = 0.000913423, No Iterations 2
GAMG:  Solving for p, Initial residual = 0.16518, Final residual = 0.0143686, No Iterations 2
time step continuity errors : sum local = 0.00783204, global = -0.000153452, cumulative = 0.00649311
smoothSolver:  Solving for epsilon, Initial residual = 0.00124203, Final residual = 8.01596e-05, No Iterations 1
smoothSolver:  Solving for k, Initial residual = 0.00152491, Final residual = 4.30649e-05, No Iterations 2
ExecutionTime = 50.4869 s  ClockTime = 51 s

Time = 79s

smoothSolver:  Solving for Ux, Initial residual = 0.0165128, Final residual = 0.00092292, No Iterations 2
smoothSolver:  Solving for Uy, Initial residual = 0.00193178, Final residual = 0.000107254, No Iterations 2
smoothSolver:  Solving for Uz, Initial residual = 0.0168327, Final residual = 0.000904191, No Iterations 2
GAMG:  Solving for p, Initial residual = 0.168741, Final residual = 0.014583, No Iterations 2
time step continuity errors : sum local = 0.00786021, global = -0.000190562, cumulative = 0.00630255
smoothSolver:  Solving for epsilon, Initial residual = 0.00123681, Final residual = 7.68538e-05, No Iterations 1
smoothSolver:  Solving for k, Initial residual = 0.00149717, Final residual = 4.14158e-05, No Iterations 2
ExecutionTime = 51.0999 s  ClockTime = 51 s

Time = 80s

smoothSolver:  Solving for Ux, Initial residual = 0.0164207, Final residual = 0.000935172, No Iterations 2
smoothSolver:  Solving for Uy, Initial residual = 0.00192663, Final residual = 0.000105833, No Iterations 2
smoothSolver:  Solving for Uz, Initial residual = 0.0162843, Final residual = 0.000890222, No Iterations 2
GAMG:  Solving for p, Initial residual = 0.173793, Final residual = 0.0144305, No Iterations 2
time step continuity errors : sum local = 0.00776991, global = -0.000199337, cumulative = 0.00610321
smoothSolver:  Solving for epsilon, Initial residual = 0.00116525, Final residual = 7.26944e-05, No Iterations 1
smoothSolver:  Solving for k, Initial residual = 0.00146571, Final residual = 4.01829e-05, No Iterations 2
ExecutionTime = 51.7026 s  ClockTime = 52 s

Time = 81s

smoothSolver:  Solving for Ux, Initial residual = 0.0160914, Final residual = 0.000912176, No Iterations 2
smoothSolver:  Solving for Uy, Initial residual = 0.00188156, Final residual = 0.000104464, No Iterations 2
smoothSolver:  Solving for Uz, Initial residual = 0.0169662, Final residual = 0.000900957, No Iterations 2
GAMG:  Solving for p, Initial residual = 0.161673, Final residual = 0.0135843, No Iterations 2
time step continuity errors : sum local = 0.00737119, global = -0.000185878, cumulative = 0.00591734
smoothSolver:  Solving for epsilon, Initial residual = 0.0010503, Final residual = 6.76985e-05, No Iterations 1
smoothSolver:  Solving for k, Initial residual = 0.00142947, Final residual = 3.8703e-05, No Iterations 2
ExecutionTime = 52.3024 s  ClockTime = 53 s

Time = 82s

smoothSolver:  Solving for Ux, Initial residual = 0.0165743, Final residual = 0.000918974, No Iterations 2
smoothSolver:  Solving for Uy, Initial residual = 0.00187344, Final residual = 0.00010316, No Iterations 2
smoothSolver:  Solving for Uz, Initial residual = 0.0168221, Final residual = 0.000901252, No Iterations 2
GAMG:  Solving for p, Initial residual = 0.162805, Final residual = 0.0134698, No Iterations 2
time step continuity errors : sum local = 0.00730535, global = -0.000155464, cumulative = 0.00576187
smoothSolver:  Solving for epsilon, Initial residual = 0.00113175, Final residual = 6.5771e-05, No Iterations 1
smoothSolver:  Solving for k, Initial residual = 0.00140879, Final residual = 3.76724e-05, No Iterations 2
ExecutionTime = 52.9596 s  ClockTime = 53 s

Time = 83s

smoothSolver:  Solving for Ux, Initial residual = 0.0161364, Final residual = 0.000897715, No Iterations 2
smoothSolver:  Solving for Uy, Initial residual = 0.00182834, Final residual = 9.9148e-05, No Iterations 2
smoothSolver:  Solving for Uz, Initial residual = 0.016583, Final residual = 0.00090612, No Iterations 2
GAMG:  Solving for p, Initial residual = 0.160383, Final residual = 0.0139893, No Iterations 2
time step continuity errors : sum local = 0.00747388, global = -0.000111815, cumulative = 0.00565006
smoothSolver:  Solving for epsilon, Initial residual = 0.00121937, Final residual = 6.33179e-05, No Iterations 1
smoothSolver:  Solving for k, Initial residual = 0.00138644, Final residual = 3.6166e-05, No Iterations 2
ExecutionTime = 53.5645 s  ClockTime = 54 s

Time = 84s

smoothSolver:  Solving for Ux, Initial residual = 0.0162555, Final residual = 0.000923502, No Iterations 2
smoothSolver:  Solving for Uy, Initial residual = 0.00178662, Final residual = 9.66864e-05, No Iterations 2
smoothSolver:  Solving for Uz, Initial residual = 0.01593, Final residual = 0.000866612, No Iterations 2
GAMG:  Solving for p, Initial residual = 0.174481, Final residual = 0.0137697, No Iterations 2
time step continuity errors : sum local = 0.00730786, global = -6.63282e-05, cumulative = 0.00558373
smoothSolver:  Solving for epsilon, Initial residual = 0.00118014, Final residual = 5.99564e-05, No Iterations 1
smoothSolver:  Solving for k, Initial residual = 0.00135913, Final residual = 3.52407e-05, No Iterations 2
bounding k, min: -0.512959 max: 56.9119 average: 2.19281
ExecutionTime = 54.1812 s  ClockTime = 54 s

Time = 85s

smoothSolver:  Solving for Ux, Initial residual = 0.0158086, Final residual = 0.000883471, No Iterations 2
smoothSolver:  Solving for Uy, Initial residual = 0.00171836, Final residual = 9.43535e-05, No Iterations 2
smoothSolver:  Solving for Uz, Initial residual = 0.0162927, Final residual = 0.000871322, No Iterations 2
GAMG:  Solving for p, Initial residual = 0.16648, Final residual = 0.0135725, No Iterations 2
time step continuity errors : sum local = 0.00725709, global = -2.34844e-05, cumulative = 0.00556025
smoothSolver:  Solving for epsilon, Initial residual = 0.00107061, Final residual = 5.71004e-05, No Iterations 1
smoothSolver:  Solving for k, Initial residual = 0.00132224, Final residual = 3.40646e-05, No Iterations 2
ExecutionTime = 54.7952 s  ClockTime = 55 s

Time = 86s

smoothSolver:  Solving for Ux, Initial residual = 0.0161861, Final residual = 0.000890027, No Iterations 2
smoothSolver:  Solving for Uy, Initial residual = 0.00173138, Final residual = 9.39099e-05, No Iterations 2
smoothSolver:  Solving for Uz, Initial residual = 0.0164941, Final residual = 0.000877127, No Iterations 2
GAMG:  Solving for p, Initial residual = 0.163871, Final residual = 0.0132656, No Iterations 2
time step continuity errors : sum local = 0.00711541, global = 1.31408e-05, cumulative = 0.00557339
smoothSolver:  Solving for epsilon, Initial residual = 0.000979968, Final residual = 5.28236e-05, No Iterations 1
smoothSolver:  Solving for k, Initial residual = 0.00129131, Final residual = 3.30368e-05, No Iterations 2
ExecutionTime = 55.4093 s  ClockTime = 56 s

Time = 87s

smoothSolver:  Solving for Ux, Initial residual = 0.0159827, Final residual = 0.000884271, No Iterations 2
smoothSolver:  Solving for Uy, Initial residual = 0.00173725, Final residual = 9.32408e-05, No Iterations 2
smoothSolver:  Solving for Uz, Initial residual = 0.0164621, Final residual = 0.000894145, No Iterations 2
GAMG:  Solving for p, Initial residual = 0.155546, Final residual = 0.0133618, No Iterations 2
time step continuity errors : sum local = 0.007083, global = 3.91003e-05, cumulative = 0.00561249
smoothSolver:  Solving for epsilon, Initial residual = 0.00110679, Final residual = 5.2534e-05, No Iterations 1
smoothSolver:  Solving for k, Initial residual = 0.00127251, Final residual = 3.22607e-05, No Iterations 2
bounding k, min: -0.0238063 max: 57.0102 average: 2.14921
ExecutionTime = 56.0267 s  ClockTime = 56 s

Time = 88s

smoothSolver:  Solving for Ux, Initial residual = 0.0160821, Final residual = 0.000887313, No Iterations 2
smoothSolver:  Solving for Uy, Initial residual = 0.00171374, Final residual = 9.17119e-05, No Iterations 2
smoothSolver:  Solving for Uz, Initial residual = 0.0160369, Final residual = 0.000868734, No Iterations 2
GAMG:  Solving for p, Initial residual = 0.170577, Final residual = 0.0131373, No Iterations 2
time step continuity errors : sum local = 0.006954, global = 6.04889e-05, cumulative = 0.00567298
smoothSolver:  Solving for epsilon, Initial residual = 0.00119613, Final residual = 5.19912e-05, No Iterations 1
smoothSolver:  Solving for k, Initial residual = 0.00125416, Final residual = 3.13466e-05, No Iterations 2
ExecutionTime = 56.6289 s  ClockTime = 57 s

Time = 89s

smoothSolver:  Solving for Ux, Initial residual = 0.015505, Final residual = 0.000850523, No Iterations 2
smoothSolver:  Solving for Uy, Initial residual = 0.00167569, Final residual = 8.86981e-05, No Iterations 2
smoothSolver:  Solving for Uz, Initial residual = 0.0159743, Final residual = 0.00085891, No Iterations 2
GAMG:  Solving for p, Initial residual = 0.164386, Final residual = 0.0132984, No Iterations 2
time step continuity errors : sum local = 0.00707076, global = 7.63462e-05, cumulative = 0.00574932
smoothSolver:  Solving for epsilon, Initial residual = 0.00113444, Final residual = 4.92247e-05, No Iterations 1
smoothSolver:  Solving for k, Initial residual = 0.00122314, Final residual = 3.02315e-05, No Iterations 2
ExecutionTime = 57.2346 s  ClockTime = 58 s

Time = 90s

smoothSolver:  Solving for Ux, Initial residual = 0.015877, Final residual = 0.000872479, No Iterations 2
smoothSolver:  Solving for Uy, Initial residual = 0.00164794, Final residual = 8.71292e-05, No Iterations 2
smoothSolver:  Solving for Uz, Initial residual = 0.0161772, Final residual = 0.000853705, No Iterations 2
GAMG:  Solving for p, Initial residual = 0.164468, Final residual = 0.0130423, No Iterations 2
time step continuity errors : sum local = 0.00699692, global = 8.9377e-05, cumulative = 0.0058387
smoothSolver:  Solving for epsilon, Initial residual = 0.00100116, Final residual = 4.6039e-05, No Iterations 1
smoothSolver:  Solving for k, Initial residual = 0.0011883, Final residual = 2.90712e-05, No Iterations 2
ExecutionTime = 57.8389 s  ClockTime = 58 s

Time = 91s

smoothSolver:  Solving for Ux, Initial residual = 0.0160678, Final residual = 0.000882535, No Iterations 2
smoothSolver:  Solving for Uy, Initial residual = 0.00163298, Final residual = 8.55731e-05, No Iterations 2
smoothSolver:  Solving for Uz, Initial residual = 0.0158689, Final residual = 0.000851187, No Iterations 2
GAMG:  Solving for p, Initial residual = 0.154094, Final residual = 0.0135688, No Iterations 2
time step continuity errors : sum local = 0.00722172, global = 9.44056e-05, cumulative = 0.00593311
smoothSolver:  Solving for epsilon, Initial residual = 0.00100587, Final residual = 4.54697e-05, No Iterations 1
smoothSolver:  Solving for k, Initial residual = 0.00116434, Final residual = 2.82975e-05, No Iterations 2
ExecutionTime = 58.4353 s  ClockTime = 59 s

Time = 92s

smoothSolver:  Solving for Ux, Initial residual = 0.0159925, Final residual = 0.00085576, No Iterations 2
smoothSolver:  Solving for Uy, Initial residual = 0.00156982, Final residual = 8.40639e-05, No Iterations 2
smoothSolver:  Solving for Uz, Initial residual = 0.0155206, Final residual = 0.000844183, No Iterations 2
GAMG:  Solving for p, Initial residual = 0.159072, Final residual = 0.0131322, No Iterations 2
time step continuity errors : sum local = 0.00693999, global = 9.75215e-05, cumulative = 0.00603063
smoothSolver:  Solving for epsilon, Initial residual = 0.00109299, Final residual = 4.49831e-05, No Iterations 1
smoothSolver:  Solving for k, Initial residual = 0.00114057, Final residual = 2.72014e-05, No Iterations 2
ExecutionTime = 59.0404 s  ClockTime = 59 s

Time = 93s

smoothSolver:  Solving for Ux, Initial residual = 0.0152487, Final residual = 0.000844041, No Iterations 2
smoothSolver:  Solving for Uy, Initial residual = 0.00158942, Final residual = 8.35739e-05, No Iterations 2
smoothSolver:  Solving for Uz, Initial residual = 0.0150484, Final residual = 0.000807575, No Iterations 2
GAMG:  Solving for p, Initial residual = 0.159548, Final residual = 0.0129065, No Iterations 2
time step continuity errors : sum local = 0.00682425, global = 9.38985e-05, cumulative = 0.00612453
smoothSolver:  Solving for epsilon, Initial residual = 0.00113642, Final residual = 4.32635e-05, No Iterations 1
smoothSolver:  Solving for k, Initial residual = 0.0011168, Final residual = 2.62976e-05, No Iterations 2
ExecutionTime = 59.6664 s  ClockTime = 60 s

Time = 94s

smoothSolver:  Solving for Ux, Initial residual = 0.0152835, Final residual = 0.000828412, No Iterations 2
smoothSolver:  Solving for Uy, Initial residual = 0.00158699, Final residual = 8.37137e-05, No Iterations 2
smoothSolver:  Solving for Uz, Initial residual = 0.0152398, Final residual = 0.000805042, No Iterations 2
GAMG:  Solving for p, Initial residual = 0.161112, Final residual = 0.0117565, No Iterations 2
time step continuity errors : sum local = 0.00627588, global = 8.38932e-05, cumulative = 0.00620842
smoothSolver:  Solving for epsilon, Initial residual = 0.00107089, Final residual = 4.19849e-05, No Iterations 1
smoothSolver:  Solving for k, Initial residual = 0.00109034, Final residual = 2.52706e-05, No Iterations 2
ExecutionTime = 60.2679 s  ClockTime = 61 s

Time = 95s

smoothSolver:  Solving for Ux, Initial residual = 0.0155966, Final residual = 0.000834827, No Iterations 2
smoothSolver:  Solving for Uy, Initial residual = 0.0016354, Final residual = 8.44659e-05, No Iterations 2
smoothSolver:  Solving for Uz, Initial residual = 0.0151886, Final residual = 0.000824762, No Iterations 2
GAMG:  Solving for p, Initial residual = 0.153057, Final residual = 0.0125459, No Iterations 2
time step continuity errors : sum local = 0.00667705, global = 6.65741e-05, cumulative = 0.00627499
smoothSolver:  Solving for epsilon, Initial residual = 0.000969452, Final residual = 3.94182e-05, No Iterations 1
smoothSolver:  Solving for k, Initial residual = 0.00105986, Final residual = 2.43217e-05, No Iterations 2
ExecutionTime = 60.8748 s  ClockTime = 61 s

Time = 96s

smoothSolver:  Solving for Ux, Initial residual = 0.015849, Final residual = 0.000856509, No Iterations 2
smoothSolver:  Solving for Uy, Initial residual = 0.00155107, Final residual = 8.21436e-05, No Iterations 2
smoothSolver:  Solving for Uz, Initial residual = 0.0150521, Final residual = 0.000828009, No Iterations 2
GAMG:  Solving for p, Initial residual = 0.153618, Final residual = 0.0121323, No Iterations 2
time step continuity errors : sum local = 0.00640275, global = 4.14228e-05, cumulative = 0.00631642
smoothSolver:  Solving for epsilon, Initial residual = 0.00101044, Final residual = 4.08114e-05, No Iterations 1
smoothSolver:  Solving for k, Initial residual = 0.00103912, Final residual = 2.37276e-05, No Iterations 2
ExecutionTime = 61.5109 s  ClockTime = 62 s

Time = 97s

smoothSolver:  Solving for Ux, Initial residual = 0.0154391, Final residual = 0.000857135, No Iterations 2
smoothSolver:  Solving for Uy, Initial residual = 0.00154654, Final residual = 8.10276e-05, No Iterations 2
smoothSolver:  Solving for Uz, Initial residual = 0.0148388, Final residual = 0.000812773, No Iterations 2
GAMG:  Solving for p, Initial residual = 0.155952, Final residual = 0.0125012, No Iterations 2
time step continuity errors : sum local = 0.0066279, global = 1.1238e-05, cumulative = 0.00632765
smoothSolver:  Solving for epsilon, Initial residual = 0.00113595, Final residual = 3.99114e-05, No Iterations 1
smoothSolver:  Solving for k, Initial residual = 0.00102258, Final residual = 2.29215e-05, No Iterations 2
ExecutionTime = 62.1645 s  ClockTime = 62 s

Time = 98s

smoothSolver:  Solving for Ux, Initial residual = 0.01506, Final residual = 0.000828777, No Iterations 2
smoothSolver:  Solving for Uy, Initial residual = 0.00149954, Final residual = 7.88606e-05, No Iterations 2
[...]
smoothSolver:  Solving for epsilon, Initial residual = 0.000787751, Final residual = 1.94096e-05, No Iterations 1
smoothSolver:  Solving for k, Initial residual = 0.000252078, Final residual = 2.01426e-05, No Iterations 1
ExecutionTime = 1219.2 s  ClockTime = 1220 s

Time = 1982s

smoothSolver:  Solving for Ux, Initial residual = 0.010623, Final residual = 0.00044362, No Iterations 2
smoothSolver:  Solving for Uy, Initial residual = 0.000879509, Final residual = 3.73929e-05, No Iterations 2
smoothSolver:  Solving for Uz, Initial residual = 0.010289, Final residual = 0.000409207, No Iterations 2
GAMG:  Solving for p, Initial residual = 0.174364, Final residual = 0.0127524, No Iterations 2
time step continuity errors : sum local = 0.00689921, global = -9.7686e-07, cumulative = 0.00654869
smoothSolver:  Solving for epsilon, Initial residual = 0.000862223, Final residual = 2.04718e-05, No Iterations 1
smoothSolver:  Solving for k, Initial residual = 0.000257307, Final residual = 2.06806e-05, No Iterations 1
ExecutionTime = 1219.84 s  ClockTime = 1220 s

Time = 1983s

smoothSolver:  Solving for Ux, Initial residual = 0.0105736, Final residual = 0.000428692, No Iterations 2
smoothSolver:  Solving for Uy, Initial residual = 0.000887136, Final residual = 3.7268e-05, No Iterations 2
smoothSolver:  Solving for Uz, Initial residual = 0.0104486, Final residual = 0.000403542, No Iterations 2
GAMG:  Solving for p, Initial residual = 0.178513, Final residual = 0.0129628, No Iterations 2
time step continuity errors : sum local = 0.00701745, global = -1.87848e-06, cumulative = 0.00654681
smoothSolver:  Solving for epsilon, Initial residual = 0.00096835, Final residual = 2.20153e-05, No Iterations 1
smoothSolver:  Solving for k, Initial residual = 0.00026431, Final residual = 2.07517e-05, No Iterations 1
ExecutionTime = 1220.46 s  ClockTime = 1221 s

Time = 1984s

smoothSolver:  Solving for Ux, Initial residual = 0.0107203, Final residual = 0.000446256, No Iterations 2
smoothSolver:  Solving for Uy, Initial residual = 0.000881068, Final residual = 3.84399e-05, No Iterations 2
smoothSolver:  Solving for Uz, Initial residual = 0.0103537, Final residual = 0.00039495, No Iterations 2
GAMG:  Solving for p, Initial residual = 0.182851, Final residual = 0.013189, No Iterations 2
time step continuity errors : sum local = 0.00714793, global = -2.74581e-06, cumulative = 0.00654407
smoothSolver:  Solving for epsilon, Initial residual = 0.00095837, Final residual = 2.16596e-05, No Iterations 1
smoothSolver:  Solving for k, Initial residual = 0.000266474, Final residual = 2.07355e-05, No Iterations 1
ExecutionTime = 1221.09 s  ClockTime = 1222 s

Time = 1985s

smoothSolver:  Solving for Ux, Initial residual = 0.0105522, Final residual = 0.000443563, No Iterations 2
smoothSolver:  Solving for Uy, Initial residual = 0.000892647, Final residual = 3.80654e-05, No Iterations 2
smoothSolver:  Solving for Uz, Initial residual = 0.0105473, Final residual = 0.00040772, No Iterations 2
GAMG:  Solving for p, Initial residual = 0.178863, Final residual = 0.0135066, No Iterations 2
time step continuity errors : sum local = 0.00732077, global = -3.35019e-06, cumulative = 0.00654072
smoothSolver:  Solving for epsilon, Initial residual = 0.000838, Final residual = 2.02015e-05, No Iterations 1
smoothSolver:  Solving for k, Initial residual = 0.000259631, Final residual = 2.06036e-05, No Iterations 1
ExecutionTime = 1221.72 s  ClockTime = 1222 s

Time = 1986s

smoothSolver:  Solving for Ux, Initial residual = 0.0105684, Final residual = 0.000438653, No Iterations 2
smoothSolver:  Solving for Uy, Initial residual = 0.000895374, Final residual = 3.80567e-05, No Iterations 2
smoothSolver:  Solving for Uz, Initial residual = 0.0104063, Final residual = 0.000413277, No Iterations 2
GAMG:  Solving for p, Initial residual = 0.177094, Final residual = 0.0128228, No Iterations 2
time step continuity errors : sum local = 0.00691886, global = -3.55694e-06, cumulative = 0.00653716
smoothSolver:  Solving for epsilon, Initial residual = 0.00078695, Final residual = 1.9812e-05, No Iterations 1
smoothSolver:  Solving for k, Initial residual = 0.00025358, Final residual = 2.01872e-05, No Iterations 1
ExecutionTime = 1222.32 s  ClockTime = 1223 s

Time = 1987s

smoothSolver:  Solving for Ux, Initial residual = 0.0104678, Final residual = 0.000439011, No Iterations 2
smoothSolver:  Solving for Uy, Initial residual = 0.000867459, Final residual = 3.76501e-05, No Iterations 2
smoothSolver:  Solving for Uz, Initial residual = 0.0104072, Final residual = 0.00039925, No Iterations 2
GAMG:  Solving for p, Initial residual = 0.176021, Final residual = 0.0126514, No Iterations 2
time step continuity errors : sum local = 0.00685049, global = -3.31136e-06, cumulative = 0.00653385
smoothSolver:  Solving for epsilon, Initial residual = 0.000897224, Final residual = 2.06388e-05, No Iterations 1
smoothSolver:  Solving for k, Initial residual = 0.000257858, Final residual = 2.04058e-05, No Iterations 1
ExecutionTime = 1222.94 s  ClockTime = 1223 s

Time = 1988s

smoothSolver:  Solving for Ux, Initial residual = 0.0103798, Final residual = 0.000433837, No Iterations 2
smoothSolver:  Solving for Uy, Initial residual = 0.000879576, Final residual = 3.7871e-05, No Iterations 2
smoothSolver:  Solving for Uz, Initial residual = 0.0102133, Final residual = 0.000395556, No Iterations 2
GAMG:  Solving for p, Initial residual = 0.178659, Final residual = 0.0130806, No Iterations 2
time step continuity errors : sum local = 0.00708212, global = -2.68454e-06, cumulative = 0.00653116
smoothSolver:  Solving for epsilon, Initial residual = 0.000965453, Final residual = 2.15947e-05, No Iterations 1
smoothSolver:  Solving for k, Initial residual = 0.000265651, Final residual = 2.10253e-05, No Iterations 1
ExecutionTime = 1223.56 s  ClockTime = 1224 s

Time = 1989s

smoothSolver:  Solving for Ux, Initial residual = 0.0103636, Final residual = 0.000435271, No Iterations 2
smoothSolver:  Solving for Uy, Initial residual = 0.000897492, Final residual = 3.80063e-05, No Iterations 2
smoothSolver:  Solving for Uz, Initial residual = 0.0104898, Final residual = 0.000408221, No Iterations 2
GAMG:  Solving for p, Initial residual = 0.180119, Final residual = 0.0133491, No Iterations 2
time step continuity errors : sum local = 0.00723335, global = -1.80973e-06, cumulative = 0.00652935
smoothSolver:  Solving for epsilon, Initial residual = 0.000955229, Final residual = 2.17821e-05, No Iterations 1
smoothSolver:  Solving for k, Initial residual = 0.000265445, Final residual = 2.05847e-05, No Iterations 1
ExecutionTime = 1224.17 s  ClockTime = 1225 s

Time = 1990s

smoothSolver:  Solving for Ux, Initial residual = 0.0105357, Final residual = 0.000452596, No Iterations 2
smoothSolver:  Solving for Uy, Initial residual = 0.000879821, Final residual = 3.83413e-05, No Iterations 2
smoothSolver:  Solving for Uz, Initial residual = 0.0105376, Final residual = 0.000405174, No Iterations 2
GAMG:  Solving for p, Initial residual = 0.179902, Final residual = 0.0130238, No Iterations 2
time step continuity errors : sum local = 0.00703613, global = -8.6735e-07, cumulative = 0.00652849
smoothSolver:  Solving for epsilon, Initial residual = 0.000846026, Final residual = 2.02914e-05, No Iterations 1
smoothSolver:  Solving for k, Initial residual = 0.000258884, Final residual = 2.01454e-05, No Iterations 1
ExecutionTime = 1224.78 s  ClockTime = 1225 s

Time = 1991s

smoothSolver:  Solving for Ux, Initial residual = 0.0104507, Final residual = 0.000427978, No Iterations 2
smoothSolver:  Solving for Uy, Initial residual = 0.000865422, Final residual = 3.71901e-05, No Iterations 2
smoothSolver:  Solving for Uz, Initial residual = 0.0102544, Final residual = 0.000396106, No Iterations 2
GAMG:  Solving for p, Initial residual = 0.174819, Final residual = 0.0125626, No Iterations 2
time step continuity errors : sum local = 0.00677887, global = -3.47808e-08, cumulative = 0.00652845
smoothSolver:  Solving for epsilon, Initial residual = 0.000792099, Final residual = 1.95731e-05, No Iterations 1
smoothSolver:  Solving for k, Initial residual = 0.00025217, Final residual = 2.02412e-05, No Iterations 1
ExecutionTime = 1225.39 s  ClockTime = 1226 s

Time = 1992s

smoothSolver:  Solving for Ux, Initial residual = 0.00991516, Final residual = 0.00040312, No Iterations 2
smoothSolver:  Solving for Uy, Initial residual = 0.000865641, Final residual = 3.7059e-05, No Iterations 2
smoothSolver:  Solving for Uz, Initial residual = 0.0101979, Final residual = 0.000398001, No Iterations 2
GAMG:  Solving for p, Initial residual = 0.173835, Final residual = 0.0125841, No Iterations 2
time step continuity errors : sum local = 0.00680488, global = 5.61304e-07, cumulative = 0.00652901
smoothSolver:  Solving for epsilon, Initial residual = 0.000911049, Final residual = 2.12513e-05, No Iterations 1
smoothSolver:  Solving for k, Initial residual = 0.000259995, Final residual = 2.07828e-05, No Iterations 1
ExecutionTime = 1226 s  ClockTime = 1226 s

Time = 1993s

smoothSolver:  Solving for Ux, Initial residual = 0.0101012, Final residual = 0.0004293, No Iterations 2
smoothSolver:  Solving for Uy, Initial residual = 0.000882602, Final residual = 3.75048e-05, No Iterations 2
smoothSolver:  Solving for Uz, Initial residual = 0.0101595, Final residual = 0.000387966, No Iterations 2
GAMG:  Solving for p, Initial residual = 0.176177, Final residual = 0.0127857, No Iterations 2
time step continuity errors : sum local = 0.00693111, global = 8.75302e-07, cumulative = 0.00652989
smoothSolver:  Solving for epsilon, Initial residual = 0.000982948, Final residual = 2.218e-05, No Iterations 1
smoothSolver:  Solving for k, Initial residual = 0.000266511, Final residual = 2.07762e-05, No Iterations 1
ExecutionTime = 1226.62 s  ClockTime = 1227 s

Time = 1994s

smoothSolver:  Solving for Ux, Initial residual = 0.0104589, Final residual = 0.000440447, No Iterations 2
smoothSolver:  Solving for Uy, Initial residual = 0.000873822, Final residual = 3.82536e-05, No Iterations 2
smoothSolver:  Solving for Uz, Initial residual = 0.0102187, Final residual = 0.000393661, No Iterations 2
GAMG:  Solving for p, Initial residual = 0.178567, Final residual = 0.0130346, No Iterations 2
time step continuity errors : sum local = 0.00704311, global = 9.16572e-07, cumulative = 0.00653081
smoothSolver:  Solving for epsilon, Initial residual = 0.000923792, Final residual = 2.10935e-05, No Iterations 1
smoothSolver:  Solving for k, Initial residual = 0.000264793, Final residual = 2.09966e-05, No Iterations 1
ExecutionTime = 1227.26 s  ClockTime = 1228 s

Time = 1995s

smoothSolver:  Solving for Ux, Initial residual = 0.010287, Final residual = 0.000415151, No Iterations 2
smoothSolver:  Solving for Uy, Initial residual = 0.000862705, Final residual = 3.72724e-05, No Iterations 2
smoothSolver:  Solving for Uz, Initial residual = 0.0101401, Final residual = 0.00039177, No Iterations 2
GAMG:  Solving for p, Initial residual = 0.179286, Final residual = 0.0130983, No Iterations 2
time step continuity errors : sum local = 0.00705701, global = 7.61312e-07, cumulative = 0.00653157
smoothSolver:  Solving for epsilon, Initial residual = 0.000818196, Final residual = 2.0007e-05, No Iterations 1
smoothSolver:  Solving for k, Initial residual = 0.000256426, Final residual = 2.06246e-05, No Iterations 1
ExecutionTime = 1227.9 s  ClockTime = 1228 s

Time = 1996s

smoothSolver:  Solving for Ux, Initial residual = 0.00978014, Final residual = 0.000406556, No Iterations 2
smoothSolver:  Solving for Uy, Initial residual = 0.000847648, Final residual = 3.6398e-05, No Iterations 2
smoothSolver:  Solving for Uz, Initial residual = 0.0102239, Final residual = 0.000384236, No Iterations 2
GAMG:  Solving for p, Initial residual = 0.174368, Final residual = 0.0125427, No Iterations 2
time step continuity errors : sum local = 0.00678199, global = 5.19637e-07, cumulative = 0.00653209
smoothSolver:  Solving for epsilon, Initial residual = 0.000818448, Final residual = 1.99755e-05, No Iterations 1
smoothSolver:  Solving for k, Initial residual = 0.000254036, Final residual = 2.02631e-05, No Iterations 1
ExecutionTime = 1228.51 s  ClockTime = 1229 s

Time = 1997s

smoothSolver:  Solving for Ux, Initial residual = 0.0101565, Final residual = 0.000426863, No Iterations 2
smoothSolver:  Solving for Uy, Initial residual = 0.000865334, Final residual = 3.70155e-05, No Iterations 2
smoothSolver:  Solving for Uz, Initial residual = 0.00988902, Final residual = 0.000378074, No Iterations 2
GAMG:  Solving for p, Initial residual = 0.173326, Final residual = 0.0124713, No Iterations 2
time step continuity errors : sum local = 0.00676137, global = 2.98339e-07, cumulative = 0.00653238
smoothSolver:  Solving for epsilon, Initial residual = 0.000933703, Final residual = 2.14272e-05, No Iterations 1
smoothSolver:  Solving for k, Initial residual = 0.000261765, Final residual = 2.07729e-05, No Iterations 1
ExecutionTime = 1229.13 s  ClockTime = 1230 s

Time = 1998s

smoothSolver:  Solving for Ux, Initial residual = 0.0101349, Final residual = 0.000414722, No Iterations 2
smoothSolver:  Solving for Uy, Initial residual = 0.000874642, Final residual = 3.70567e-05, No Iterations 2
smoothSolver:  Solving for Uz, Initial residual = 0.0102081, Final residual = 0.000392442, No Iterations 2
GAMG:  Solving for p, Initial residual = 0.178396, Final residual = 0.0128342, No Iterations 2
time step continuity errors : sum local = 0.00692722, global = 1.78221e-07, cumulative = 0.00653256
smoothSolver:  Solving for epsilon, Initial residual = 0.000965044, Final residual = 2.18299e-05, No Iterations 1
smoothSolver:  Solving for k, Initial residual = 0.000264385, Final residual = 2.08102e-05, No Iterations 1
ExecutionTime = 1229.74 s  ClockTime = 1230 s

Time = 1999s

smoothSolver:  Solving for Ux, Initial residual = 0.0101607, Final residual = 0.000426489, No Iterations 2
smoothSolver:  Solving for Uy, Initial residual = 0.00085884, Final residual = 3.70585e-05, No Iterations 2
smoothSolver:  Solving for Uz, Initial residual = 0.0102007, Final residual = 0.000400251, No Iterations 2
GAMG:  Solving for p, Initial residual = 0.18185, Final residual = 0.0131917, No Iterations 2
time step continuity errors : sum local = 0.00711406, global = 2.05945e-07, cumulative = 0.00653277
smoothSolver:  Solving for epsilon, Initial residual = 0.000906519, Final residual = 2.06372e-05, No Iterations 1
smoothSolver:  Solving for k, Initial residual = 0.000261713, Final residual = 2.05253e-05, No Iterations 1
ExecutionTime = 1230.36 s  ClockTime = 1231 s

Time = 2000s

smoothSolver:  Solving for Ux, Initial residual = 0.0100219, Final residual = 0.000416007, No Iterations 2
smoothSolver:  Solving for Uy, Initial residual = 0.000858191, Final residual = 3.6857e-05, No Iterations 2
smoothSolver:  Solving for Uz, Initial residual = 0.0104065, Final residual = 0.000398707, No Iterations 2
GAMG:  Solving for p, Initial residual = 0.177784, Final residual = 0.0128498, No Iterations 2
time step continuity errors : sum local = 0.00695565, global = 3.84895e-07, cumulative = 0.00653315
smoothSolver:  Solving for epsilon, Initial residual = 0.00081801, Final residual = 1.97775e-05, No Iterations 1
smoothSolver:  Solving for k, Initial residual = 0.000256363, Final residual = 2.0431e-05, No Iterations 1
ExecutionTime = 1231.36 s  ClockTime = 1232 s

Time = 2001s

smoothSolver:  Solving for Ux, Initial residual = 0.0101214, Final residual = 0.000414392, No Iterations 2
smoothSolver:  Solving for Uy, Initial residual = 0.000869914, Final residual = 3.67908e-05, No Iterations 2
smoothSolver:  Solving for Uz, Initial residual = 0.0101441, Final residual = 0.000389616, No Iterations 2
GAMG:  Solving for p, Initial residual = 0.175335, Final residual = 0.0126424, No Iterations 2
time step continuity errors : sum local = 0.00684477, global = 7.00979e-07, cumulative = 0.00653385
smoothSolver:  Solving for epsilon, Initial residual = 0.000828058, Final residual = 2.00056e-05, No Iterations 1
smoothSolver:  Solving for k, Initial residual = 0.000255153, Final residual = 2.05453e-05, No Iterations 1
ExecutionTime = 1232.04 s  ClockTime = 1233 s

Time = 2002s

smoothSolver:  Solving for Ux, Initial residual = 0.00996, Final residual = 0.000405262, No Iterations 2
smoothSolver:  Solving for Uy, Initial residual = 0.000853862, Final residual = 3.65391e-05, No Iterations 2
smoothSolver:  Solving for Uz, Initial residual = 0.0103222, Final residual = 0.000392852, No Iterations 2
GAMG:  Solving for p, Initial residual = 0.176046, Final residual = 0.0126349, No Iterations 2
time step continuity errors : sum local = 0.00684251, global = 1.11716e-06, cumulative = 0.00653497
smoothSolver:  Solving for epsilon, Initial residual = 0.000908976, Final residual = 2.11643e-05, No Iterations 1
smoothSolver:  Solving for k, Initial residual = 0.000259921, Final residual = 2.04669e-05, No Iterations 1
ExecutionTime = 1232.65 s  ClockTime = 1233 s

Time = 2003s

smoothSolver:  Solving for Ux, Initial residual = 0.010336, Final residual = 0.000436523, No Iterations 2
smoothSolver:  Solving for Uy, Initial residual = 0.000880328, Final residual = 3.81041e-05, No Iterations 2
smoothSolver:  Solving for Uz, Initial residual = 0.0101613, Final residual = 0.000385987, No Iterations 2
GAMG:  Solving for p, Initial residual = 0.181704, Final residual = 0.0132529, No Iterations 2
time step continuity errors : sum local = 0.0071626, global = 1.58519e-06, cumulative = 0.00653656
smoothSolver:  Solving for epsilon, Initial residual = 0.0009558, Final residual = 2.16301e-05, No Iterations 1
smoothSolver:  Solving for k, Initial residual = 0.000263574, Final residual = 2.05238e-05, No Iterations 1
ExecutionTime = 1233.29 s  ClockTime = 1234 s

Time = 2004s

smoothSolver:  Solving for Ux, Initial residual = 0.0101924, Final residual = 0.00041825, No Iterations 2
smoothSolver:  Solving for Uy, Initial residual = 0.000886758, Final residual = 3.76908e-05, No Iterations 2
smoothSolver:  Solving for Uz, Initial residual = 0.0105338, Final residual = 0.000400916, No Iterations 2
GAMG:  Solving for p, Initial residual = 0.182274, Final residual = 0.0131269, No Iterations 2
time step continuity errors : sum local = 0.00711317, global = 2.05242e-06, cumulative = 0.00653861
smoothSolver:  Solving for epsilon, Initial residual = 0.000889818, Final residual = 2.11201e-05, No Iterations 1
smoothSolver:  Solving for k, Initial residual = 0.000262192, Final residual = 2.07544e-05, No Iterations 1
ExecutionTime = 1233.9 s  ClockTime = 1234 s

Time = 2005s

smoothSolver:  Solving for Ux, Initial residual = 0.0105534, Final residual = 0.000434196, No Iterations 2
smoothSolver:  Solving for Uy, Initial residual = 0.000890625, Final residual = 3.81086e-05, No Iterations 2
smoothSolver:  Solving for Uz, Initial residual = 0.0107646, Final residual = 0.000400379, No Iterations 2
GAMG:  Solving for p, Initial residual = 0.1832, Final residual = 0.0130455, No Iterations 2
time step continuity errors : sum local = 0.0070885, global = 2.46635e-06, cumulative = 0.00654108
smoothSolver:  Solving for epsilon, Initial residual = 0.000793016, Final residual = 1.99921e-05, No Iterations 1
smoothSolver:  Solving for k, Initial residual = 0.000253934, Final residual = 2.02777e-05, No Iterations 1
ExecutionTime = 1234.51 s  ClockTime = 1235 s

Time = 2006s

smoothSolver:  Solving for Ux, Initial residual = 0.0103292, Final residual = 0.000417422, No Iterations 2
smoothSolver:  Solving for Uy, Initial residual = 0.000876616, Final residual = 3.78194e-05, No Iterations 2
smoothSolver:  Solving for Uz, Initial residual = 0.0107154, Final residual = 0.000418069, No Iterations 2
GAMG:  Solving for p, Initial residual = 0.175188, Final residual = 0.012833, No Iterations 2
time step continuity errors : sum local = 0.00694919, global = 2.75721e-06, cumulative = 0.00654383
