/*---------------------------------------------------------------------------*\
  =========                 |
  \\      /  F ield         | OpenFOAM: The Open Source CFD Toolbox
   \\    /   O peration     | Website:  https://openfoam.org
    \\  /    A nd           | Version:  12
     \\/     M anipulation  |
\*---------------------------------------------------------------------------*/
Build  : 12-86e126a7bc4d
Exec   : snappyHexMesh -overwrite
Date   : Apr 18 2025
Time   : 12:02:42
Host   : "IhorPC"
PID    : 44569
I/O    : uncollated
Case   : /home/ihor/OpenFOAM/ihor-10/myWindTunnelCase
nProcs : 1
sigFpe : Enabling floating point exception trapping (FOAM_SIGFPE).
fileModificationChecking : Monitoring run-time modified files using timeStampMaster (fileModificationSkew 10)
allowSystemOperations : Allowing user-supplied system call operations

// * * * * * * * * * * * * * * * * * * * * * * * * * * * * * * * * * * * * * //
Create time

Create mesh for time = 0

Read mesh in = 0.118689 s
Reading "snappyHexMeshDict"


Overall mesh bounding box  : (-3 -10 -2.6) (3 10 2.6)
Relative tolerance         : 1e-06
Absolute matching distance : 2.15184e-05

Reading refinement surfaces...
Read refinement surfaces in = 0.002906 s

Reading refinement regions...
Read refinement regions in = 2.6e-05 s

Reading features...
Read edgeMesh drone.eMesh
    points      : 552
    edges       : 572
    boundingBox : (-1.39658 4.29421 0.517735) (1.38528 8.23855 0.748152)

Refinement level according to distance to "drone.eMesh" (552 points, 572 edges).
    level 1 for all cells within 0 metre.
Read edgeMesh blade1.eMesh
    points      : 348
    edges       : 298
    boundingBox : (-2.22334 7.98533 0.513331) (-0.303664 8.24847 0.583788)

Refinement level according to distance to "blade1.eMesh" (348 points, 298 edges).
    level 1 for all cells within 0 metre.
Read edgeMesh blade2.eMesh
    points      : 348
    edges       : 298
    boundingBox : (1.14441 7.15917 0.4897) (1.35573 9.07234 0.598526)

Refinement level according to distance to "blade2.eMesh" (348 points, 298 edges).
    level 1 for all cells within 0 metre.
Read edgeMesh blade3.eMesh
    points      : 348
    edges       : 298
    boundingBox : (0.305078 4.28042 0.445888) (2.2187 4.54354 0.636001)

Refinement level according to distance to "blade3.eMesh" (348 points, 298 edges).
    level 1 for all cells within 0 metre.
Read edgeMesh blade4.eMesh
    points      : 348
    edges       : 298
    boundingBox : (-1.36894 3.46922 0.480892) (-1.15792 5.38243 0.598924)

Refinement level according to distance to "blade4.eMesh" (348 points, 298 edges).
    level 1 for all cells within 0 metre.
Read features in = 0.002745 s


Determining initial surface intersections
-----------------------------------------

Edge intersection testing:
    Number of edges             : 231250
    Number of edges to retest   : 231250
    Number of intersected edges : 12933
Calculated surface intersections in = 0.188605 s

Initial mesh : cells:75000  faces:231250  points:81406
Cells per refinement level:
    0	75000

Adding patches for surface regions
----------------------------------

Patch Type                Region                        
----- ----                ------                        
walls:

2     wall                walls                         

inlet:

0     patch               inlet                         

outlet:

1     patch               outlet                        

drone:

3     wall                drone                         

blade1:

4     wall                blade1                        

blade2:

5     wall                blade2                        

blade3:

6     wall                blade3                        

blade4:

7     wall                blade4                        

Added patches in = 0.002867 s

Selecting distributor none
Cell selection insidePoints: 1((0 0 0))

Refinement phase
----------------

Found point (0 0 0) in cell 37484 on processor 0

Feature refinement iteration 0
------------------------------

Marked for refinement due to explicit features             : 66 cells.
Determined cells to refine in = 0.167959 s
Selected for feature refinement : 66 cells (out of 75000)
Edge intersection testing:
    Number of edges             : 233068
    Number of edges to retest   : 3248
    Number of intersected edges : 13266
Refined mesh in = 0.095399 s
After refinement feature refinement iteration 0 : cells:75462  faces:233068  points:82393
Cells per refinement level:
    0	74934
    1	528

Feature refinement iteration 1
------------------------------

Marked for refinement due to explicit features             : 0 cells.
Determined cells to refine in = 0.167559 s
Selected for feature refinement : 0 cells (out of 75462)
Stopping refining since too few cells selected.


Surface refinement iteration 0
------------------------------

Marked for refinement due to surface intersection          : 12613 cells.
Marked for refinement due to curvature/regions             : 0 cells.
Determined cells to refine in = 0.005363 s
Selected for refinement : 12679 cells (out of 75462)
Edge intersection testing:
    Number of edges             : 537385
    Number of edges to retest   : 389382
    Number of intersected edges : 53053
Refined mesh in = 0.340649 s
After refinement surface refinement iteration 0 : cells:164215  faces:537385  points:209331
Cells per refinement level:
    0	62528
    1	99503
    2	2184

Surface refinement iteration 1
------------------------------

Marked for refinement due to surface intersection          : 3248 cells.
Marked for refinement due to curvature/regions             : 0 cells.
Determined cells to refine in = 0.037352 s
Selected for refinement : 3688 cells (out of 164215)
Edge intersection testing:
    Number of edges             : 623068
    Number of edges to retest   : 110648
    Number of intersected edges : 62303
Refined mesh in = 0.295854 s
After refinement surface refinement iteration 1 : cells:190031  faces:623068  points:243619
Cells per refinement level:
    0	62263
    1	99658
    2	16446
    3	11664

Surface refinement iteration 2
------------------------------

Marked for refinement due to surface intersection          : 7351 cells.
Marked for refinement due to curvature/regions             : 4243 cells.
Determined cells to refine in = 0.05837 s
Selected for refinement : 12746 cells (out of 190031)
Edge intersection testing:
    Number of edges             : 919315
    Number of edges to retest   : 393654
    Number of intersected edges : 95693
Refined mesh in = 0.596217 s
After refinement surface refinement iteration 2 : cells:279253  faces:919315  points:362057
Cells per refinement level:
    0	62151
    1	99676
    2	15957
    3	67525
    4	33944

Surface refinement iteration 3
------------------------------

Marked for refinement due to surface intersection          : 367 cells.
Marked for refinement due to curvature/regions             : 3394 cells.
Determined cells to refine in = 0.119296 s
Selected for refinement : 4397 cells (out of 279253)
Edge intersection testing:
    Number of edges             : 1024894
    Number of edges to retest   : 202115
    Number of intersected edges : 109249
Refined mesh in = 0.575814 s
After refinement surface refinement iteration 3 : cells:310032  faces:1024894  points:407135
Cells per refinement level:
    0	62101
    1	99893
    2	16651
    3	70291
    4	61096

Surface refinement iteration 4
------------------------------

Marked for refinement due to surface intersection          : 55 cells.
Marked for refinement due to curvature/regions             : 782 cells.
Determined cells to refine in = 0.138941 s
Selected for refinement : 1058 cells (out of 310032)
Edge intersection testing:
    Number of edges             : 1049500
    Number of edges to retest   : 63571
    Number of intersected edges : 111357
Refined mesh in = 0.49194 s
After refinement surface refinement iteration 4 : cells:317438  faces:1049500  points:416929
Cells per refinement level:
    0	62080
    1	100000
    2	16945
    3	71061
    4	67352

Surface refinement iteration 5
------------------------------

Marked for refinement due to surface intersection          : 24 cells.
Marked for refinement due to curvature/regions             : 168 cells.
Determined cells to refine in = 0.138104 s
Selected for refinement : 265 cells (out of 317438)
Edge intersection testing:
    Number of edges             : 1055737
    Number of edges to retest   : 14201
    Number of intersected edges : 111828
Refined mesh in = 0.451506 s
After refinement surface refinement iteration 5 : cells:319293  faces:1055737  points:419481
Cells per refinement level:
    0	62072
    1	100037
    2	17099
    3	71389
    4	68696

Surface refinement iteration 6
------------------------------

Marked for refinement due to surface intersection          : 15 cells.
Marked for refinement due to curvature/regions             : 62 cells.
Determined cells to refine in = 0.138861 s
Selected for refinement : 119 cells (out of 319293)
Edge intersection testing:
    Number of edges             : 1058491
    Number of edges to retest   : 6436
    Number of intersected edges : 112015
Refined mesh in = 0.441153 s
After refinement surface refinement iteration 6 : cells:320126  faces:1058491  points:420577
Cells per refinement level:
    0	62061
    1	100109
    2	17197
    3	71567
    4	69192

Surface refinement iteration 7
------------------------------

Marked for refinement due to surface intersection          : 3 cells.
Marked for refinement due to curvature/regions             : 33 cells.
Determined cells to refine in = 0.134677 s
Selected for refinement : 47 cells (out of 320126)
Edge intersection testing:
    Number of edges             : 1059580
    Number of edges to retest   : 2655
    Number of intersected edges : 112105
Refined mesh in = 0.441125 s
After refinement surface refinement iteration 7 : cells:320455  faces:1059580  points:421012
Cells per refinement level:
    0	62060
    1	100113
    2	17220
    3	71606
    4	69456

Surface refinement iteration 8
------------------------------

Marked for refinement due to surface intersection          : 0 cells.
Marked for refinement due to curvature/regions             : 10 cells.
Determined cells to refine in = 0.140417 s
Selected for refinement : 16 cells (out of 320455)
Edge intersection testing:
    Number of edges             : 1059958
    Number of edges to retest   : 1190
    Number of intersected edges : 112126
Refined mesh in = 0.435691 s
After refinement surface refinement iteration 8 : cells:320567  faces:1059958  points:421169
Cells per refinement level:
    0	62059
    1	100119
    2	17233
    3	71620
    4	69536

Surface refinement iteration 9
------------------------------

Marked for refinement due to surface intersection          : 0 cells.
Marked for refinement due to curvature/regions             : 4 cells.
Determined cells to refine in = 0.133281 s
Selected for refinement : 5 cells (out of 320567)
Stopping refining since too few cells selected.


Removing mesh beyond surface intersections
------------------------------------------

Selecting all cells in regions containing any of the points in 1((0 0 0))
Selected: 297296 cells.
Edge intersection testing:
    Number of edges             : 1001080
    Number of edges to retest   : 38862
    Number of intersected edges : 112126

Shell refinement iteration 0
----------------------------

Marked for refinement due to distance to explicit features : 0 cells.
Marked for refinement due to refinement shells             : 0 cells.
Determined cells to refine in = 2.73037 s
Selected for internal refinement : 46903 cells (out of 297296)
Edge intersection testing:
    Number of edges             : 2011252
    Number of edges to retest   : 1647569
    Number of intersected edges : 122669
Refined mesh in = 1.82216 s
After refinement shell refinement iteration 0 : cells:625617  faces:2011252  points:758801
Cells per refinement level:
    0	50088
    1	192148
    2	28016
    3	119081
    4	236284

Shell refinement iteration 1
----------------------------

Marked for refinement due to distance to explicit features : 0 cells.
Marked for refinement due to refinement shells             : 0 cells.
Determined cells to refine in = 0.340027 s
Selected for internal refinement : 15797 cells (out of 625617)
Edge intersection testing:
    Number of edges             : 2348101
    Number of edges to retest   : 839094
    Number of intersected edges : 123970
Refined mesh in = 1.50216 s
After refinement shell refinement iteration 1 : cells:736196  faces:2348101  points:874328
Cells per refinement level:
    0	49179
    1	196594
    2	45530
    3	152865
    4	292028

Shell refinement iteration 2
----------------------------

Marked for refinement due to distance to explicit features : 0 cells.
Marked for refinement due to refinement shells             : 0 cells.
Determined cells to refine in = 0.407829 s
Selected for internal refinement : 1401 cells (out of 736196)
Edge intersection testing:
    Number of edges             : 2377714
    Number of edges to retest   : 98045
    Number of intersected edges : 123990
Refined mesh in = 1.12109 s
After refinement shell refinement iteration 2 : cells:746003  faces:2377714  points:884334
Cells per refinement level:
    0	48653
    1	200161
    2	50448
    3	154521
    4	292220

Shell refinement iteration 3
----------------------------

Marked for refinement due to distance to explicit features : 0 cells.
Marked for refinement due to refinement shells             : 0 cells.
Determined cells to refine in = 0.398262 s
Selected for internal refinement : 174 cells (out of 746003)
Edge intersection testing:
    Number of edges             : 2381383
    Number of edges to retest   : 13500
    Number of intersected edges : 123990
Refined mesh in = 1.08639 s
After refinement shell refinement iteration 3 : cells:747221  faces:2381383  points:885563
Cells per refinement level:
    0	48513
    1	201252
    2	50675
    3	154561
    4	292220

Shell refinement iteration 4
----------------------------

Marked for refinement due to distance to explicit features : 0 cells.
Marked for refinement due to refinement shells             : 0 cells.
Determined cells to refine in = 0.402785 s
Selected for internal refinement : 6 cells (out of 747221)
Stopping refining since too few cells selected.


Dangling coarse cells refinement iteration 0
--------------------------------------------

Determined cells to refine in = 0.01076 s
Selected for refinement : 25 cells (out of 747221)
Edge intersection testing:
    Number of edges             : 2381758
    Number of edges to retest   : 2851
    Number of intersected edges : 123990
Refined mesh in = 1.06782 s
After refinement coarse cell refinement iteration 0 : cells:747396  faces:2381758  points:885613
Cells per refinement level:
    0	48512
    1	201260
    2	50671
    3	154573
    4	292380

Dangling coarse cells refinement iteration 1
--------------------------------------------

Determined cells to refine in = 0.013829 s
Selected for refinement : 0 cells (out of 747396)
Stopping refining since too few cells selected.


Dangling coarse cells refinement iteration 0
--------------------------------------------

Determined cells to refine in = 0.01083 s
Selected for refinement : 0 cells (out of 747396)
Stopping refining since too few cells selected.


Splitting mesh at surface intersections
---------------------------------------

Introducing baffles for 123990 faces that are intersected by the surface.

Edge intersection testing:
    Number of edges             : 2455741
    Number of edges to retest   : 628932
    Number of intersected edges : 197143
Created baffles in = 1.29001 s


After introducing baffles : cells:747396  faces:2455741  points:885613
Cells per refinement level:
    0	48512
    1	201260
    2	50671
    3	154573
    4	292380

Introducing baffles to block off problem cells
----------------------------------------------

markFacesOnProblemCells : marked 69263 additional internal faces to be converted into baffles.
Analyzed problem cells in = 0.951869 s


Introducing baffles to delete problem cells.

Edge intersection testing:
    Number of edges             : 2525004
    Number of edges to retest   : 260416
    Number of intersected edges : 197154
Created baffles in = 1.04783 s


After introducing baffles : cells:747396  faces:2525004  points:885613
Cells per refinement level:
    0	48512
    1	201260
    2	50671
    3	154573
    4	292380

Remove unreachable sections of mesh
-----------------------------------

Keeping all cells in regions containing any point in 1((0 0 0))
Selected for keeping : 659999 cells.
Edge intersection testing:
    Number of edges             : 2122313
    Number of edges to retest   : 0
    Number of intersected edges : 115335
Split mesh in = 9.88354 s


After subsetting : cells:659999  faces:2122313  points:802105
Cells per refinement level:
    0	48512
    1	201260
    2	50671
    3	139822
    4	219734

Handling cells with snap problems
---------------------------------

Introducing baffles for 115335 faces that are intersected by the surface.

Edge intersection testing:
    Number of edges             : 2122313
    Number of edges to retest   : 405873
    Number of intersected edges : 115335
Created baffles in = 0.874516 s


After introducing baffles : cells:659999  faces:2122313  points:802105
Cells per refinement level:
    0	48512
    1	201260
    2	50671
    3	139822
    4	219734

Introducing baffles to block off problem cells
----------------------------------------------

markFacesOnProblemCells : marked 0 additional internal faces to be converted into baffles.
Analyzed problem cells in = 0.737197 s


Introducing baffles to delete problem cells.

Edge intersection testing:
    Number of edges             : 2122313
    Number of edges to retest   : 0
    Number of intersected edges : 115335
Created baffles in = 0.617604 s


After introducing baffles : cells:659999  faces:2122313  points:802105
Cells per refinement level:
    0	48512
    1	201260
    2	50671
    3	139822
    4	219734

Remove unreachable sections of mesh
-----------------------------------

Split mesh in = 8.64931 s


After subsetting : cells:659999  faces:2122313  points:802105
Cells per refinement level:
    0	48512
    1	201260
    2	50671
    3	139822
    4	219734

Merge free-standing baffles
---------------------------

freeStandingBaffles : detected 309 free-standing baffles out of 361

freeStandingBaffles : detected 47 planar (within 30 degrees) free-standing baffles out of 309

Detected free-standing baffles : 47
Edge intersection testing:
    Number of edges             : 2122266
    Number of edges to retest   : 47
    Number of intersected edges : 115288

Introducing baffles to block off problem cells
----------------------------------------------

markFacesOnProblemCells : marked 0 additional internal faces to be converted into baffles.
Analyzed problem cells in = 1.71755 s


Introducing baffles to delete problem cells.

Edge intersection testing:
    Number of edges             : 2122266
    Number of edges to retest   : 0
    Number of intersected edges : 115288
Created baffles in = 0.587891 s


After introducing baffles : cells:659999  faces:2122266  points:802105
Cells per refinement level:
    0	48512
    1	201260
    2	50671
    3	139822
    4	219734
Merged free-standing baffles in = 0.00253 s


dupNonManifoldPoints : Found : 559 non-manifold points (out of 802105)
Edge intersection testing:
    Number of edges             : 2122266
    Number of edges to retest   : 0
    Number of intersected edges : 115288
Detected unsplittable baffles : 0

Merge refined boundary faces
----------------------------

Merging 240 sets of faces.

Edge intersection testing:
    Number of edges             : 2121894
    Number of edges to retest   : 1700
    Number of intersected edges : 114914

Undo iteration 0
----------------
Checking faces in error :
    non-orthogonality > 65  degrees                        : 0
    faces with face pyramid volume < 1e-13                 : 0
    faces with face-decomposition tet quality < 1e-12      : 0
    faces with concavity > 80  degrees                     : 0
    faces with skewness > 3   (internal) or 4   (boundary) : 0
    faces with interpolation weights (0..1)  < 0.02        : 0
    faces with volume ratio of neighbour cells < 0.01      : 0
    faces with face twist < 0.02                           : 0
    faces on cells with determinant < 0.001                : 0

Merging all points on surface that
- are used by only two boundary faces and
- make an angle with a cosine of more than 0.707107.

Removing 300 straight edge points ...

Edge intersection testing:
    Number of edges             : 2121894
    Number of edges to retest   : 1934
    Number of intersected edges : 114914

Undo iteration 0
----------------
Checking faces in error :
    non-orthogonality > 65  degrees                        : 0
    faces with face pyramid volume < 1e-13                 : 0
    faces with face-decomposition tet quality < 1e-12      : 0
    faces with concavity > 80  degrees                     : 0
    faces with skewness > 3   (internal) or 4   (boundary) : 0
    faces with interpolation weights (0..1)  < 0.02        : 0
    faces with volume ratio of neighbour cells < 0.01      : 0
    faces with face twist < 0.02                           : 0
    faces on cells with determinant < 0.001                : 0
Refined mesh : cells:659999  faces:2121894  points:802299
Cells per refinement level:
    0	48512
    1	201260
    2	50671
    3	139822
    4	219734
Writing mesh to time constant
Wrote mesh in = 5.87042 s.
Mesh refined in = 48.69 s.

Morphing phase
--------------


Snapping to features in 10 iterations ...
Constructing mesh displacer ...
Using mesh parameters 
{
    maxNonOrtho     65;
    maxBoundarySkewness 4;
    maxInternalSkewness 3;
    maxConcave      80;
    minVol          1e-13;
    minTetQuality   1e-12;
    minTwist        0.02;
    minDeterminant  0.001;
    minFaceWeight   0.02;
    minVolRatio     0.01;
    nSmoothScale    5;
    errorReduction  0.75;
    relaxed
    {
        maxNonOrtho     75;
    }
}


Checking initial mesh ...
Checking faces in error :
    non-orthogonality > 65  degrees                        : 0
    faces with face pyramid volume < 1e-13                 : 0
    faces with face-decomposition tet quality < 1e-12      : 0
    faces with concavity > 80  degrees                     : 0
    faces with skewness > 3   (internal) or 4   (boundary) : 0
    faces with interpolation weights (0..1)  < 0.02        : 0
    faces with volume ratio of neighbour cells < 0.01      : 0
    faces with face twist < 0.02                           : 0
    faces on cells with determinant < 0.001                : 0
Detected 0 illegal faces (concave, zero area or negative cell pyramid volume)
Checked initial mesh in = 1.36321 s


Smoothing patch points ...
Smoothing iteration 0
Found 1119 non-manifold point(s).

Scaling iteration 0
Moving mesh using displacement scaling : min:1  max:1
Checking faces in error :
    non-orthogonality > 65  degrees                        : 0
    faces with face pyramid volume < 1e-13                 : 0
    faces with face-decomposition tet quality < 1e-12      : 0
    faces with concavity > 80  degrees                     : 1
    faces with skewness > 3   (internal) or 4   (boundary) : 0
    faces with interpolation weights (0..1)  < 0.02        : 0
    faces with volume ratio of neighbour cells < 0.01      : 0
    faces with face twist < 0.02                           : 0
    faces on cells with determinant < 0.001                : 0

Scaling iteration 1
Moving mesh using displacement scaling : min:0.75  max:1
Checking faces in error :
    non-orthogonality > 65  degrees                        : 0
    faces with face pyramid volume < 1e-13                 : 0
    faces with face-decomposition tet quality < 1e-12      : 0
    faces with concavity > 80  degrees                     : 0
    faces with skewness > 3   (internal) or 4   (boundary) : 0
    faces with interpolation weights (0..1)  < 0.02        : 0
    faces with volume ratio of neighbour cells < 0.01      : 0
    faces with face twist < 0.02                           : 0
    faces on cells with determinant < 0.001                : 0
Successfully moved mesh

Smoothing iteration 1
Found 0 non-manifold point(s).

Scaling iteration 0
Moving mesh using displacement scaling : min:1  max:1
Checking faces in error :
    non-orthogonality > 65  degrees                        : 0
    faces with face pyramid volume < 1e-13                 : 0
    faces with face-decomposition tet quality < 1e-12      : 2
    faces with concavity > 80  degrees                     : 0
    faces with skewness > 3   (internal) or 4   (boundary) : 0
    faces with interpolation weights (0..1)  < 0.02        : 0
    faces with volume ratio of neighbour cells < 0.01      : 0
    faces with face twist < 0.02                           : 0
    faces on cells with determinant < 0.001                : 0

Scaling iteration 1
Moving mesh using displacement scaling : min:0.75  max:1
Checking faces in error :
    non-orthogonality > 65  degrees                        : 0
    faces with face pyramid volume < 1e-13                 : 0
    faces with face-decomposition tet quality < 1e-12      : 2
    faces with concavity > 80  degrees                     : 0
    faces with skewness > 3   (internal) or 4   (boundary) : 0
    faces with interpolation weights (0..1)  < 0.02        : 0
    faces with volume ratio of neighbour cells < 0.01      : 0
    faces with face twist < 0.02                           : 0
    faces on cells with determinant < 0.001                : 0

Scaling iteration 2
Moving mesh using displacement scaling : min:0.5625  max:1
Checking faces in error :
    non-orthogonality > 65  degrees                        : 0
    faces with face pyramid volume < 1e-13                 : 0
    faces with face-decomposition tet quality < 1e-12      : 0
    faces with concavity > 80  degrees                     : 0
    faces with skewness > 3   (internal) or 4   (boundary) : 0
    faces with interpolation weights (0..1)  < 0.02        : 0
    faces with volume ratio of neighbour cells < 0.01      : 0
    faces with face twist < 0.02                           : 0
    faces on cells with determinant < 0.001                : 0
Successfully moved mesh

Smoothing iteration 2
Found 0 non-manifold point(s).

Scaling iteration 0
Moving mesh using displacement scaling : min:1  max:1
Checking faces in error :
    non-orthogonality > 65  degrees                        : 0
    faces with face pyramid volume < 1e-13                 : 0
    faces with face-decomposition tet quality < 1e-12      : 2
    faces with concavity > 80  degrees                     : 0
    faces with skewness > 3   (internal) or 4   (boundary) : 0
    faces with interpolation weights (0..1)  < 0.02        : 0
    faces with volume ratio of neighbour cells < 0.01      : 0
    faces with face twist < 0.02                           : 0
    faces on cells with determinant < 0.001                : 0

Scaling iteration 1
Moving mesh using displacement scaling : min:0.75  max:1
Checking faces in error :
    non-orthogonality > 65  degrees                        : 0
    faces with face pyramid volume < 1e-13                 : 0
    faces with face-decomposition tet quality < 1e-12      : 2
    faces with concavity > 80  degrees                     : 0
    faces with skewness > 3   (internal) or 4   (boundary) : 0
    faces with interpolation weights (0..1)  < 0.02        : 0
    faces with volume ratio of neighbour cells < 0.01      : 0
    faces with face twist < 0.02                           : 0
    faces on cells with determinant < 0.001                : 0

Scaling iteration 2
Moving mesh using displacement scaling : min:0.5625  max:1
Checking faces in error :
    non-orthogonality > 65  degrees                        : 0
    faces with face pyramid volume < 1e-13                 : 0
    faces with face-decomposition tet quality < 1e-12      : 2
    faces with concavity > 80  degrees                     : 0
    faces with skewness > 3   (internal) or 4   (boundary) : 0
    faces with interpolation weights (0..1)  < 0.02        : 0
    faces with volume ratio of neighbour cells < 0.01      : 0
    faces with face twist < 0.02                           : 0
    faces on cells with determinant < 0.001                : 0

Scaling iteration 3
Moving mesh using displacement scaling : min:0.421875  max:1
Checking faces in error :
    non-orthogonality > 65  degrees                        : 0
    faces with face pyramid volume < 1e-13                 : 0
    faces with face-decomposition tet quality < 1e-12      : 2
    faces with concavity > 80  degrees                     : 0
    faces with skewness > 3   (internal) or 4   (boundary) : 0
    faces with interpolation weights (0..1)  < 0.02        : 0
    faces with volume ratio of neighbour cells < 0.01      : 0
    faces with face twist < 0.02                           : 0
    faces on cells with determinant < 0.001                : 0

Scaling iteration 4
Moving mesh using displacement scaling : min:0.316406  max:1
Checking faces in error :
    non-orthogonality > 65  degrees                        : 0
    faces with face pyramid volume < 1e-13                 : 0
    faces with face-decomposition tet quality < 1e-12      : 2
    faces with concavity > 80  degrees                     : 0
    faces with skewness > 3   (internal) or 4   (boundary) : 0
    faces with interpolation weights (0..1)  < 0.02        : 0
    faces with volume ratio of neighbour cells < 0.01      : 0
    faces with face twist < 0.02                           : 0
    faces on cells with determinant < 0.001                : 0

Scaling iteration 5
Moving mesh using displacement scaling : min:0.237305  max:1
Checking faces in error :
    non-orthogonality > 65  degrees                        : 0
    faces with face pyramid volume < 1e-13                 : 0
    faces with face-decomposition tet quality < 1e-12      : 2
    faces with concavity > 80  degrees                     : 0
    faces with skewness > 3   (internal) or 4   (boundary) : 0
    faces with interpolation weights (0..1)  < 0.02        : 0
    faces with volume ratio of neighbour cells < 0.01      : 0
    faces with face twist < 0.02                           : 0
    faces on cells with determinant < 0.001                : 0

Scaling iteration 6
Moving mesh using displacement scaling : min:0.177979  max:1
Checking faces in error :
    non-orthogonality > 65  degrees                        : 0
    faces with face pyramid volume < 1e-13                 : 0
    faces with face-decomposition tet quality < 1e-12      : 2
    faces with concavity > 80  degrees                     : 0
    faces with skewness > 3   (internal) or 4   (boundary) : 0
    faces with interpolation weights (0..1)  < 0.02        : 0
    faces with volume ratio of neighbour cells < 0.01      : 0
    faces with face twist < 0.02                           : 0
    faces on cells with determinant < 0.001                : 0

Scaling iteration 7
Displacement scaling for error reduction set to 0.
Moving mesh using displacement scaling : min:0.133484  max:1
Checking faces in error :
    non-orthogonality > 65  degrees                        : 0
    faces with face pyramid volume < 1e-13                 : 0
    faces with face-decomposition tet quality < 1e-12      : 2
    faces with concavity > 80  degrees                     : 0
    faces with skewness > 3   (internal) or 4   (boundary) : 0
    faces with interpolation weights (0..1)  < 0.02        : 0
    faces with volume ratio of neighbour cells < 0.01      : 0
    faces with face twist < 0.02                           : 0
    faces on cells with determinant < 0.001                : 0

Scaling iteration 8
Moving mesh using displacement scaling : min:0  max:1
Checking faces in error :
    non-orthogonality > 65  degrees                        : 0
    faces with face pyramid volume < 1e-13                 : 0
    faces with face-decomposition tet quality < 1e-12      : 0
    faces with concavity > 80  degrees                     : 0
    faces with skewness > 3   (internal) or 4   (boundary) : 0
    faces with interpolation weights (0..1)  < 0.02        : 0
    faces with volume ratio of neighbour cells < 0.01      : 0
    faces with face twist < 0.02                           : 0
    faces on cells with determinant < 0.001                : 0
Successfully moved mesh

Smoothing iteration 3
Found 0 non-manifold point(s).

Scaling iteration 0
Moving mesh using displacement scaling : min:1  max:1
Checking faces in error :
    non-orthogonality > 65  degrees                        : 0
    faces with face pyramid volume < 1e-13                 : 0
    faces with face-decomposition tet quality < 1e-12      : 5
    faces with concavity > 80  degrees                     : 0
    faces with skewness > 3   (internal) or 4   (boundary) : 0
    faces with interpolation weights (0..1)  < 0.02        : 0
    faces with volume ratio of neighbour cells < 0.01      : 0
    faces with face twist < 0.02                           : 0
    faces on cells with determinant < 0.001                : 0

Scaling iteration 1
Moving mesh using displacement scaling : min:0.75  max:1
Checking faces in error :
    non-orthogonality > 65  degrees                        : 0
    faces with face pyramid volume < 1e-13                 : 0
    faces with face-decomposition tet quality < 1e-12      : 4
    faces with concavity > 80  degrees                     : 0
    faces with skewness > 3   (internal) or 4   (boundary) : 0
    faces with interpolation weights (0..1)  < 0.02        : 0
    faces with volume ratio of neighbour cells < 0.01      : 0
    faces with face twist < 0.02                           : 0
    faces on cells with determinant < 0.001                : 0

Scaling iteration 2
Moving mesh using displacement scaling : min:0.5625  max:1
Checking faces in error :
    non-orthogonality > 65  degrees                        : 0
    faces with face pyramid volume < 1e-13                 : 0
    faces with face-decomposition tet quality < 1e-12      : 3
    faces with concavity > 80  degrees                     : 0
    faces with skewness > 3   (internal) or 4   (boundary) : 0
    faces with interpolation weights (0..1)  < 0.02        : 0
    faces with volume ratio of neighbour cells < 0.01      : 0
    faces with face twist < 0.02                           : 0
    faces on cells with determinant < 0.001                : 0

Scaling iteration 3
Moving mesh using displacement scaling : min:0.421875  max:1
Checking faces in error :
    non-orthogonality > 65  degrees                        : 0
    faces with face pyramid volume < 1e-13                 : 0
    faces with face-decomposition tet quality < 1e-12      : 2
    faces with concavity > 80  degrees                     : 0
    faces with skewness > 3   (internal) or 4   (boundary) : 0
    faces with interpolation weights (0..1)  < 0.02        : 0
    faces with volume ratio of neighbour cells < 0.01      : 0
    faces with face twist < 0.02                           : 0
    faces on cells with determinant < 0.001                : 0

Scaling iteration 4
Moving mesh using displacement scaling : min:0.316406  max:1
Checking faces in error :
    non-orthogonality > 65  degrees                        : 0
    faces with face pyramid volume < 1e-13                 : 0
    faces with face-decomposition tet quality < 1e-12      : 2
    faces with concavity > 80  degrees                     : 0
    faces with skewness > 3   (internal) or 4   (boundary) : 0
    faces with interpolation weights (0..1)  < 0.02        : 0
    faces with volume ratio of neighbour cells < 0.01      : 0
    faces with face twist < 0.02                           : 0
    faces on cells with determinant < 0.001                : 0

Scaling iteration 5
Moving mesh using displacement scaling : min:0.237305  max:1
Checking faces in error :
    non-orthogonality > 65  degrees                        : 0
    faces with face pyramid volume < 1e-13                 : 0
    faces with face-decomposition tet quality < 1e-12      : 2
    faces with concavity > 80  degrees                     : 0
    faces with skewness > 3   (internal) or 4   (boundary) : 0
    faces with interpolation weights (0..1)  < 0.02        : 0
    faces with volume ratio of neighbour cells < 0.01      : 0
    faces with face twist < 0.02                           : 0
    faces on cells with determinant < 0.001                : 0

Scaling iteration 6
Moving mesh using displacement scaling : min:0.177979  max:1
Checking faces in error :
    non-orthogonality > 65  degrees                        : 0
    faces with face pyramid volume < 1e-13                 : 0
    faces with face-decomposition tet quality < 1e-12      : 2
    faces with concavity > 80  degrees                     : 0
    faces with skewness > 3   (internal) or 4   (boundary) : 0
    faces with interpolation weights (0..1)  < 0.02        : 0
    faces with volume ratio of neighbour cells < 0.01      : 0
    faces with face twist < 0.02                           : 0
    faces on cells with determinant < 0.001                : 0

Scaling iteration 7
Displacement scaling for error reduction set to 0.
Moving mesh using displacement scaling : min:0.133484  max:1
Checking faces in error :
    non-orthogonality > 65  degrees                        : 0
    faces with face pyramid volume < 1e-13                 : 0
    faces with face-decomposition tet quality < 1e-12      : 2
    faces with concavity > 80  degrees                     : 0
    faces with skewness > 3   (internal) or 4   (boundary) : 0
    faces with interpolation weights (0..1)  < 0.02        : 0
    faces with volume ratio of neighbour cells < 0.01      : 0
    faces with face twist < 0.02                           : 0
    faces on cells with determinant < 0.001                : 0

Scaling iteration 8
Moving mesh using displacement scaling : min:0  max:1
Checking faces in error :
    non-orthogonality > 65  degrees                        : 0
    faces with face pyramid volume < 1e-13                 : 0
    faces with face-decomposition tet quality < 1e-12      : 0
    faces with concavity > 80  degrees                     : 0
    faces with skewness > 3   (internal) or 4   (boundary) : 0
    faces with interpolation weights (0..1)  < 0.02        : 0
    faces with volume ratio of neighbour cells < 0.01      : 0
    faces with face twist < 0.02                           : 0
    faces on cells with determinant < 0.001                : 0
Successfully moved mesh

Patch points smoothed in = 33.7591 s



Morph iteration 0
-----------------
Calculating patchDisplacement as distance to nearest surface point ...
Wanted displacement : average:0.00968731 min:5.30664e-08 max:0.0709606
Calculated surface displacement in = 0.076637 s


Detecting near surfaces ...
Overriding nearest with intersection of close gaps at 188 out of 116265 points.
Overriding displacement on features :
   implicit features    : true
   explicit features    : false
   multi-patch features : false

Attraction:
     linear   : max:(0.0709606 0 0) avg:(8.4893e-05 6.33858e-06 -2.16325e-05)
     feature  : max:(0.0709606 0.0709606 -0.0737938) avg:(7.84347e-05 9.29748e-06 -3.39015e-06)
Feature analysis : total master points:116265 attraction to :
    feature point   : 476
    feature edge    : 7432
    nearest surface : 108305
    rest            : 52

--> FOAM Warning : Displacement (2.57574e-05 0.000260121 2.7973e-05) at mesh point 244460 coord (-1.19484 4.41182 0.570598) points through the surrounding patch faces
Smoothing displacement ...
Iteration 0
Iteration 10
Iteration 20
Iteration 30
Iteration 40
Displacement smoothed in = 2.07773 s


Moving mesh ...

Iteration 0
Moving mesh using displacement scaling : min:1  max:1
Checking faces in error :
    non-orthogonality > 65  degrees                        : 0
    faces with face pyramid volume < 1e-13                 : 0
    faces with face-decomposition tet quality < 1e-12      : 1
    faces with concavity > 80  degrees                     : 0
    faces with skewness > 3   (internal) or 4   (boundary) : 0
    faces with interpolation weights (0..1)  < 0.02        : 0
    faces with volume ratio of neighbour cells < 0.01      : 0
    faces with face twist < 0.02                           : 0
    faces on cells with determinant < 0.001                : 0

Iteration 1
Moving mesh using displacement scaling : min:0.75  max:1
Checking faces in error :
    non-orthogonality > 65  degrees                        : 0
    faces with face pyramid volume < 1e-13                 : 0
    faces with face-decomposition tet quality < 1e-12      : 0
    faces with concavity > 80  degrees                     : 0
    faces with skewness > 3   (internal) or 4   (boundary) : 0
    faces with interpolation weights (0..1)  < 0.02        : 0
    faces with volume ratio of neighbour cells < 0.01      : 0
    faces with face twist < 0.02                           : 0
    faces on cells with determinant < 0.001                : 0
Successfully moved mesh
Moved mesh in = 2.66174 s



Morph iteration 1
-----------------
Calculating patchDisplacement as distance to nearest surface point ...
Wanted displacement : average:0.00874493 min:4.77598e-08 max:0.0638645
Calculated surface displacement in = 0.073937 s


Detecting near surfaces ...
Overriding nearest with intersection of close gaps at 206 out of 116265 points.
Overriding displacement on features :
   implicit features    : true
   explicit features    : false
   multi-patch features : false

Attraction:
     linear   : max:(0.0638645 0 0) avg:(7.68007e-05 5.82385e-06 -1.81653e-05)
     feature  : max:(0.0638645 0.070251 -0.0730559) avg:(6.91786e-05 8.42613e-06 -1.00794e-06)
Feature analysis : total master points:116265 attraction to :
    feature point   : 489
    feature edge    : 7468
    nearest surface : 108256
    rest            : 52

--> FOAM Warning : Displacement (0.000168727 0.00102679 6.16018e-05) at mesh point 244460 coord (-1.19482 4.41208 0.570626) points through the surrounding patch faces
Smoothing displacement ...
Iteration 0
Iteration 10
Iteration 20
Iteration 30
Iteration 40
Displacement smoothed in = 2.06872 s


Moving mesh ...

Iteration 0
Moving mesh using displacement scaling : min:1  max:1
Checking faces in error :
    non-orthogonality > 65  degrees                        : 0
    faces with face pyramid volume < 1e-13                 : 0
    faces with face-decomposition tet quality < 1e-12      : 5
    faces with concavity > 80  degrees                     : 0
    faces with skewness > 3   (internal) or 4   (boundary) : 0
    faces with interpolation weights (0..1)  < 0.02        : 0
    faces with volume ratio of neighbour cells < 0.01      : 0
    faces with face twist < 0.02                           : 0
    faces on cells with determinant < 0.001                : 0

Iteration 1
Moving mesh using displacement scaling : min:0.75  max:1
Checking faces in error :
    non-orthogonality > 65  degrees                        : 0
    faces with face pyramid volume < 1e-13                 : 0
    faces with face-decomposition tet quality < 1e-12      : 3
    faces with concavity > 80  degrees                     : 0
    faces with skewness > 3   (internal) or 4   (boundary) : 0
    faces with interpolation weights (0..1)  < 0.02        : 0
    faces with volume ratio of neighbour cells < 0.01      : 0
    faces with face twist < 0.02                           : 0
    faces on cells with determinant < 0.001                : 0

Iteration 2
Moving mesh using displacement scaling : min:0.5625  max:1
Checking faces in error :
    non-orthogonality > 65  degrees                        : 0
    faces with face pyramid volume < 1e-13                 : 0
    faces with face-decomposition tet quality < 1e-12      : 0
    faces with concavity > 80  degrees                     : 0
    faces with skewness > 3   (internal) or 4   (boundary) : 0
    faces with interpolation weights (0..1)  < 0.02        : 0
    faces with volume ratio of neighbour cells < 0.01      : 0
    faces with face twist < 0.02                           : 0
    faces on cells with determinant < 0.001                : 0
Successfully moved mesh
Moved mesh in = 4.68831 s



Morph iteration 2
-----------------
Calculating patchDisplacement as distance to nearest surface point ...
Wanted displacement : average:0.00703458 min:3.82078e-08 max:0.0510916
Calculated surface displacement in = 0.07395 s


Detecting near surfaces ...
Overriding nearest with intersection of close gaps at 239 out of 116265 points.
Overriding displacement on features :
   implicit features    : true
   explicit features    : false
   multi-patch features : false

Attraction:
     linear   : max:(0.0510916 0 0) avg:(6.12846e-05 4.06269e-06 -1.28468e-05)
     feature  : max:(0.0510916 0.067441 -0.0701337) avg:(5.34397e-05 6.32632e-06 3.26783e-06)
Feature analysis : total master points:116265 attraction to :
    feature point   : 500
    feature edge    : 7545
    nearest surface : 108168
    rest            : 52

--> FOAM Warning : Displacement (0.000433425 0.00229909 9.74327e-05) at mesh point 244460 coord (-1.19465 4.41311 0.570688) points through the surrounding patch faces
Smoothing displacement ...
Iteration 0
Iteration 10
Iteration 20
Iteration 30
Iteration 40
Displacement smoothed in = 1.91316 s


Moving mesh ...

Iteration 0
Moving mesh using displacement scaling : min:1  max:1
Checking faces in error :
    non-orthogonality > 65  degrees                        : 0
    faces with face pyramid volume < 1e-13                 : 0
    faces with face-decomposition tet quality < 1e-12      : 7
    faces with concavity > 80  degrees                     : 0
    faces with skewness > 3   (internal) or 4   (boundary) : 0
    faces with interpolation weights (0..1)  < 0.02        : 0
    faces with volume ratio of neighbour cells < 0.01      : 0
    faces with face twist < 0.02                           : 0
    faces on cells with determinant < 0.001                : 0

Iteration 1
Moving mesh using displacement scaling : min:0.75  max:1
Checking faces in error :
    non-orthogonality > 65  degrees                        : 0
    faces with face pyramid volume < 1e-13                 : 0
    faces with face-decomposition tet quality < 1e-12      : 6
    faces with concavity > 80  degrees                     : 0
    faces with skewness > 3   (internal) or 4   (boundary) : 0
    faces with interpolation weights (0..1)  < 0.02        : 0
    faces with volume ratio of neighbour cells < 0.01      : 0
    faces with face twist < 0.02                           : 0
    faces on cells with determinant < 0.001                : 0

Iteration 2
Moving mesh using displacement scaling : min:0.5625  max:1
Checking faces in error :
    non-orthogonality > 65  degrees                        : 0
    faces with face pyramid volume < 1e-13                 : 0
    faces with face-decomposition tet quality < 1e-12      : 6
    faces with concavity > 80  degrees                     : 0
    faces with skewness > 3   (internal) or 4   (boundary) : 0
    faces with interpolation weights (0..1)  < 0.02        : 0
    faces with volume ratio of neighbour cells < 0.01      : 0
    faces with face twist < 0.02                           : 0
    faces on cells with determinant < 0.001                : 0

Iteration 3
Moving mesh using displacement scaling : min:0.421875  max:1
Checking faces in error :
    non-orthogonality > 65  degrees                        : 0
    faces with face pyramid volume < 1e-13                 : 0
    faces with face-decomposition tet quality < 1e-12      : 3
    faces with concavity > 80  degrees                     : 0
    faces with skewness > 3   (internal) or 4   (boundary) : 0
    faces with interpolation weights (0..1)  < 0.02        : 0
    faces with volume ratio of neighbour cells < 0.01      : 0
    faces with face twist < 0.02                           : 0
    faces on cells with determinant < 0.001                : 0

Iteration 4
Moving mesh using displacement scaling : min:0.316406  max:1
Checking faces in error :
    non-orthogonality > 65  degrees                        : 0
    faces with face pyramid volume < 1e-13                 : 0
    faces with face-decomposition tet quality < 1e-12      : 0
    faces with concavity > 80  degrees                     : 0
    faces with skewness > 3   (internal) or 4   (boundary) : 0
    faces with interpolation weights (0..1)  < 0.02        : 0
    faces with volume ratio of neighbour cells < 0.01      : 0
    faces with face twist < 0.02                           : 0
    faces on cells with determinant < 0.001                : 0
Successfully moved mesh
Moved mesh in = 6.45072 s



Morph iteration 3
-----------------
Calculating patchDisplacement as distance to nearest surface point ...
Wanted displacement : average:0.00496507 min:3.54286e-09 max:0.0357641
Calculated surface displacement in = 0.067897 s


Detecting near surfaces ...
Overriding nearest with intersection of close gaps at 305 out of 116265 points.
Overriding displacement on features :
   implicit features    : true
   explicit features    : false
   multi-patch features : false

Attraction:
     linear   : max:(0.0357641 0 -4.44089e-16) avg:(4.2839e-05 2.66372e-06 -7.15695e-06)
     feature  : max:(0.0613713 -0.0357641 -0.0638216) avg:(3.74266e-05 1.07367e-06 6.61328e-06)
Feature analysis : total master points:116265 attraction to :
    feature point   : 518
    feature edge    : 7623
    nearest surface : 108068
    rest            : 56

--> FOAM Warning : Displacement (2.43641e-06 4.20463e-06 -0.000374955) at mesh point 281746 coord (1.28628 4.48739 0.519879) points through the surrounding patch faces
Smoothing displacement ...
Iteration 0
Iteration 10
Iteration 20
Iteration 30
Iteration 40
Displacement smoothed in = 1.80546 s


Moving mesh ...

Iteration 0
Moving mesh using displacement scaling : min:1  max:1
Checking faces in error :
    non-orthogonality > 65  degrees                        : 0
    faces with face pyramid volume < 1e-13                 : 3
    faces with face-decomposition tet quality < 1e-12      : 143
    faces with concavity > 80  degrees                     : 8
    faces with skewness > 3   (internal) or 4   (boundary) : 0
    faces with interpolation weights (0..1)  < 0.02        : 0
    faces with volume ratio of neighbour cells < 0.01      : 0
    faces with face twist < 0.02                           : 6
    faces on cells with determinant < 0.001                : 0

Iteration 1
Moving mesh using displacement scaling : min:0.75  max:1
Checking faces in error :
    non-orthogonality > 65  degrees                        : 0
    faces with face pyramid volume < 1e-13                 : 1
    faces with face-decomposition tet quality < 1e-12      : 69
    faces with concavity > 80  degrees                     : 2
    faces with skewness > 3   (internal) or 4   (boundary) : 0
    faces with interpolation weights (0..1)  < 0.02        : 0
    faces with volume ratio of neighbour cells < 0.01      : 0
    faces with face twist < 0.02                           : 4
    faces on cells with determinant < 0.001                : 0

Iteration 2
Moving mesh using displacement scaling : min:0.5625  max:1
Checking faces in error :
    non-orthogonality > 65  degrees                        : 0
    faces with face pyramid volume < 1e-13                 : 0
    faces with face-decomposition tet quality < 1e-12      : 31
    faces with concavity > 80  degrees                     : 1
    faces with skewness > 3   (internal) or 4   (boundary) : 0
    faces with interpolation weights (0..1)  < 0.02        : 0
    faces with volume ratio of neighbour cells < 0.01      : 0
    faces with face twist < 0.02                           : 4
    faces on cells with determinant < 0.001                : 0

Iteration 3
Moving mesh using displacement scaling : min:0.421875  max:1
Checking faces in error :
    non-orthogonality > 65  degrees                        : 0
    faces with face pyramid volume < 1e-13                 : 0
    faces with face-decomposition tet quality < 1e-12      : 22
    faces with concavity > 80  degrees                     : 0
    faces with skewness > 3   (internal) or 4   (boundary) : 0
    faces with interpolation weights (0..1)  < 0.02        : 0
    faces with volume ratio of neighbour cells < 0.01      : 0
    faces with face twist < 0.02                           : 2
    faces on cells with determinant < 0.001                : 0

Iteration 4
Moving mesh using displacement scaling : min:0.316406  max:1
Checking faces in error :
    non-orthogonality > 65  degrees                        : 0
    faces with face pyramid volume < 1e-13                 : 0
    faces with face-decomposition tet quality < 1e-12      : 16
    faces with concavity > 80  degrees                     : 0
    faces with skewness > 3   (internal) or 4   (boundary) : 0
    faces with interpolation weights (0..1)  < 0.02        : 0
    faces with volume ratio of neighbour cells < 0.01      : 0
    faces with face twist < 0.02                           : 4
    faces on cells with determinant < 0.001                : 0

Iteration 5
Moving mesh using displacement scaling : min:0.237305  max:1
Checking faces in error :
    non-orthogonality > 65  degrees                        : 0
    faces with face pyramid volume < 1e-13                 : 0
    faces with face-decomposition tet quality < 1e-12      : 7
    faces with concavity > 80  degrees                     : 0
    faces with skewness > 3   (internal) or 4   (boundary) : 0
    faces with interpolation weights (0..1)  < 0.02        : 0
    faces with volume ratio of neighbour cells < 0.01      : 0
    faces with face twist < 0.02                           : 3
    faces on cells with determinant < 0.001                : 0

Iteration 6
Moving mesh using displacement scaling : min:0.177979  max:1
Checking faces in error :
    non-orthogonality > 65  degrees                        : 0
    faces with face pyramid volume < 1e-13                 : 0
    faces with face-decomposition tet quality < 1e-12      : 5
    faces with concavity > 80  degrees                     : 0
    faces with skewness > 3   (internal) or 4   (boundary) : 0
    faces with interpolation weights (0..1)  < 0.02        : 0
    faces with volume ratio of neighbour cells < 0.01      : 0
    faces with face twist < 0.02                           : 2
    faces on cells with determinant < 0.001                : 0

Iteration 7
Displacement scaling for error reduction set to 0.
Moving mesh using displacement scaling : min:0.133484  max:1
Checking faces in error :
    non-orthogonality > 65  degrees                        : 0
    faces with face pyramid volume < 1e-13                 : 0
    faces with face-decomposition tet quality < 1e-12      : 5
    faces with concavity > 80  degrees                     : 0
    faces with skewness > 3   (internal) or 4   (boundary) : 0
    faces with interpolation weights (0..1)  < 0.02        : 0
    faces with volume ratio of neighbour cells < 0.01      : 0
    faces with face twist < 0.02                           : 0
    faces on cells with determinant < 0.001                : 0

Iteration 8
Moving mesh using displacement scaling : min:0  max:1
Checking faces in error :
    non-orthogonality > 65  degrees                        : 0
    faces with face pyramid volume < 1e-13                 : 0
    faces with face-decomposition tet quality < 1e-12      : 0
    faces with concavity > 80  degrees                     : 0
    faces with skewness > 3   (internal) or 4   (boundary) : 0
    faces with interpolation weights (0..1)  < 0.02        : 0
    faces with volume ratio of neighbour cells < 0.01      : 0
    faces with face twist < 0.02                           : 0
    faces on cells with determinant < 0.001                : 0
Successfully moved mesh
Moved mesh in = 11.7491 s



Morph iteration 4
-----------------
Calculating patchDisplacement as distance to nearest surface point ...
Wanted displacement : average:0.00301881 min:1.60473e-08 max:0.0214585
Calculated surface displacement in = 0.067709 s


Detecting near surfaces ...
Overriding nearest with intersection of close gaps at 453 out of 116265 points.
Overriding displacement on features :
   implicit features    : true
   explicit features    : false
   multi-patch features : false

Attraction:
     linear   : max:(0.0214585 0 0) avg:(2.59316e-05 1.3636e-06 -2.77661e-06)
     feature  : max:(0.0515519 -0.0214585 -0.0536102) avg:(2.0082e-05 -1.08917e-06 8.22673e-06)
Feature analysis : total master points:116265 attraction to :
    feature point   : 543
    feature edge    : 7759
    nearest surface : 107904
    rest            : 59

--> FOAM Warning : Displacement (3.93177e-05 6.80803e-05 -0.000462207) at mesh point 281746 coord (1.28628 4.4874 0.519504) points through the surrounding patch faces
Smoothing displacement ...
Iteration 0
Iteration 10
Iteration 20
Iteration 30
Iteration 40
Displacement smoothed in = 1.83955 s


Moving mesh ...

Iteration 0
Moving mesh using displacement scaling : min:1  max:1
Checking faces in error :
    non-orthogonality > 65  degrees                        : 18
    faces with face pyramid volume < 1e-13                 : 50
    faces with face-decomposition tet quality < 1e-12      : 666
    faces with concavity > 80  degrees                     : 14
    faces with skewness > 3   (internal) or 4   (boundary) : 0
    faces with interpolation weights (0..1)  < 0.02        : 0
    faces with volume ratio of neighbour cells < 0.01      : 2
    faces with face twist < 0.02                           : 10
    faces on cells with determinant < 0.001                : 0

Iteration 1
Moving mesh using displacement scaling : min:0.75  max:1
Checking faces in error :
    non-orthogonality > 65  degrees                        : 6
    faces with face pyramid volume < 1e-13                 : 34
    faces with face-decomposition tet quality < 1e-12      : 499
    faces with concavity > 80  degrees                     : 7
    faces with skewness > 3   (internal) or 4   (boundary) : 1
    faces with interpolation weights (0..1)  < 0.02        : 0
    faces with volume ratio of neighbour cells < 0.01      : 0
    faces with face twist < 0.02                           : 6
    faces on cells with determinant < 0.001                : 0

Iteration 2
Moving mesh using displacement scaling : min:0.5625  max:1
Checking faces in error :
    non-orthogonality > 65  degrees                        : 1
    faces with face pyramid volume < 1e-13                 : 15
    faces with face-decomposition tet quality < 1e-12      : 344
    faces with concavity > 80  degrees                     : 7
    faces with skewness > 3   (internal) or 4   (boundary) : 2
    faces with interpolation weights (0..1)  < 0.02        : 0
    faces with volume ratio of neighbour cells < 0.01      : 0
    faces with face twist < 0.02                           : 8
    faces on cells with determinant < 0.001                : 0

Iteration 3
Moving mesh using displacement scaling : min:0.421875  max:1
Checking faces in error :
    non-orthogonality > 65  degrees                        : 0
    faces with face pyramid volume < 1e-13                 : 9
    faces with face-decomposition tet quality < 1e-12      : 243
    faces with concavity > 80  degrees                     : 8
    faces with skewness > 3   (internal) or 4   (boundary) : 1
    faces with interpolation weights (0..1)  < 0.02        : 0
    faces with volume ratio of neighbour cells < 0.01      : 0
    faces with face twist < 0.02                           : 9
    faces on cells with determinant < 0.001                : 0

Iteration 4
Moving mesh using displacement scaling : min:0.316406  max:1
Checking faces in error :
    non-orthogonality > 65  degrees                        : 0
    faces with face pyramid volume < 1e-13                 : 2
    faces with face-decomposition tet quality < 1e-12      : 181
    faces with concavity > 80  degrees                     : 10
    faces with skewness > 3   (internal) or 4   (boundary) : 0
    faces with interpolation weights (0..1)  < 0.02        : 0
    faces with volume ratio of neighbour cells < 0.01      : 0
    faces with face twist < 0.02                           : 9
    faces on cells with determinant < 0.001                : 0

Iteration 5
Moving mesh using displacement scaling : min:0.237305  max:1
Checking faces in error :
    non-orthogonality > 65  degrees                        : 0
    faces with face pyramid volume < 1e-13                 : 1
    faces with face-decomposition tet quality < 1e-12      : 141
    faces with concavity > 80  degrees                     : 5
    faces with skewness > 3   (internal) or 4   (boundary) : 0
    faces with interpolation weights (0..1)  < 0.02        : 0
    faces with volume ratio of neighbour cells < 0.01      : 0
    faces with face twist < 0.02                           : 8
    faces on cells with determinant < 0.001                : 0

Iteration 6
Moving mesh using displacement scaling : min:0.177979  max:1
Checking faces in error :
    non-orthogonality > 65  degrees                        : 0
    faces with face pyramid volume < 1e-13                 : 1
    faces with face-decomposition tet quality < 1e-12      : 112
    faces with concavity > 80  degrees                     : 6
    faces with skewness > 3   (internal) or 4   (boundary) : 0
    faces with interpolation weights (0..1)  < 0.02        : 0
    faces with volume ratio of neighbour cells < 0.01      : 0
    faces with face twist < 0.02                           : 7
    faces on cells with determinant < 0.001                : 0

Iteration 7
Displacement scaling for error reduction set to 0.
Moving mesh using displacement scaling : min:0.133484  max:1
Checking faces in error :
    non-orthogonality > 65  degrees                        : 0
    faces with face pyramid volume < 1e-13                 : 1
    faces with face-decomposition tet quality < 1e-12      : 82
    faces with concavity > 80  degrees                     : 3
    faces with skewness > 3   (internal) or 4   (boundary) : 0
    faces with interpolation weights (0..1)  < 0.02        : 0
    faces with volume ratio of neighbour cells < 0.01      : 0
    faces with face twist < 0.02                           : 6
    faces on cells with determinant < 0.001                : 0

Iteration 8
Moving mesh using displacement scaling : min:0  max:1
Checking faces in error :
    non-orthogonality > 65  degrees                        : 0
    faces with face pyramid volume < 1e-13                 : 0
    faces with face-decomposition tet quality < 1e-12      : 4
    faces with concavity > 80  degrees                     : 0
    faces with skewness > 3   (internal) or 4   (boundary) : 0
    faces with interpolation weights (0..1)  < 0.02        : 0
    faces with volume ratio of neighbour cells < 0.01      : 0
    faces with face twist < 0.02                           : 0
    faces on cells with determinant < 0.001                : 0

Iteration 9
Moving mesh using displacement scaling : min:0  max:1
Checking faces in error :
    non-orthogonality > 65  degrees                        : 0
    faces with face pyramid volume < 1e-13                 : 0
    faces with face-decomposition tet quality < 1e-12      : 0
    faces with concavity > 80  degrees                     : 0
    faces with skewness > 3   (internal) or 4   (boundary) : 0
    faces with interpolation weights (0..1)  < 0.02        : 0
    faces with volume ratio of neighbour cells < 0.01      : 0
    faces with face twist < 0.02                           : 0
    faces on cells with determinant < 0.001                : 0
Successfully moved mesh
Moved mesh in = 13.7059 s



Morph iteration 5
-----------------
Calculating patchDisplacement as distance to nearest surface point ...
Wanted displacement : average:0.00159688 min:5.47925e-09 max:0.0107292
Calculated surface displacement in = 0.067165 s


Detecting near surfaces ...
Overriding nearest with intersection of close gaps at 604 out of 116265 points.
Overriding displacement on features :
   implicit features    : true
   explicit features    : false
   multi-patch features : false

Attraction:
     linear   : max:(-0.00615374 -0.0141476 -0.00045988) avg:(1.36129e-05 9.10288e-07 8.56403e-07)
     feature  : max:(-0.0107292 0.0386639 -0.0402076) avg:(8.63974e-06 -3.22964e-06 1.03311e-05)
Feature analysis : total master points:116265 attraction to :
    feature point   : 563
    feature edge    : 7852
    nearest surface : 107793
    rest            : 57

--> FOAM Warning : Displacement (0.000616852 -0.00291861 -0.00312562) at mesh point 196122 coord (-3.00164 -9.8885 -2.48428) points through the surrounding patch faces
Smoothing displacement ...
Iteration 0
Iteration 10
Iteration 20
Iteration 30
Iteration 40
Displacement smoothed in = 1.77868 s


Moving mesh ...

Iteration 0
Moving mesh using displacement scaling : min:1  max:1
Checking faces in error :
    non-orthogonality > 65  degrees                        : 157
    faces with face pyramid volume < 1e-13                 : 193
    faces with face-decomposition tet quality < 1e-12      : 1064
    faces with concavity > 80  degrees                     : 6
    faces with skewness > 3   (internal) or 4   (boundary) : 0
    faces with interpolation weights (0..1)  < 0.02        : 1
    faces with volume ratio of neighbour cells < 0.01      : 1
    faces with face twist < 0.02                           : 19
    faces on cells with determinant < 0.001                : 0

Iteration 1
Moving mesh using displacement scaling : min:0.75  max:1
Checking faces in error :
    non-orthogonality > 65  degrees                        : 58
    faces with face pyramid volume < 1e-13                 : 103
    faces with face-decomposition tet quality < 1e-12      : 926
    faces with concavity > 80  degrees                     : 9
    faces with skewness > 3   (internal) or 4   (boundary) : 0
    faces with interpolation weights (0..1)  < 0.02        : 0
    faces with volume ratio of neighbour cells < 0.01      : 0
    faces with face twist < 0.02                           : 20
    faces on cells with determinant < 0.001                : 0

Iteration 2
Moving mesh using displacement scaling : min:0.5625  max:1
Checking faces in error :
    non-orthogonality > 65  degrees                        : 18
    faces with face pyramid volume < 1e-13                 : 57
    faces with face-decomposition tet quality < 1e-12      : 791
    faces with concavity > 80  degrees                     : 6
    faces with skewness > 3   (internal) or 4   (boundary) : 1
    faces with interpolation weights (0..1)  < 0.02        : 0
    faces with volume ratio of neighbour cells < 0.01      : 0
    faces with face twist < 0.02                           : 15
    faces on cells with determinant < 0.001                : 0

Iteration 3
Moving mesh using displacement scaling : min:0.421875  max:1
Checking faces in error :
    non-orthogonality > 65  degrees                        : 6
    faces with face pyramid volume < 1e-13                 : 32
    faces with face-decomposition tet quality < 1e-12      : 660
    faces with concavity > 80  degrees                     : 12
    faces with skewness > 3   (internal) or 4   (boundary) : 1
    faces with interpolation weights (0..1)  < 0.02        : 0
    faces with volume ratio of neighbour cells < 0.01      : 0
    faces with face twist < 0.02                           : 12
    faces on cells with determinant < 0.001                : 0

Iteration 4
Moving mesh using displacement scaling : min:0.316406  max:1
Checking faces in error :
    non-orthogonality > 65  degrees                        : 0
    faces with face pyramid volume < 1e-13                 : 18
    faces with face-decomposition tet quality < 1e-12      : 562
    faces with concavity > 80  degrees                     : 12
    faces with skewness > 3   (internal) or 4   (boundary) : 1
    faces with interpolation weights (0..1)  < 0.02        : 0
    faces with volume ratio of neighbour cells < 0.01      : 0
    faces with face twist < 0.02                           : 13
    faces on cells with determinant < 0.001                : 0

Iteration 5
Moving mesh using displacement scaling : min:0.237305  max:1
Checking faces in error :
    non-orthogonality > 65  degrees                        : 0
    faces with face pyramid volume < 1e-13                 : 8
    faces with face-decomposition tet quality < 1e-12      : 476
    faces with concavity > 80  degrees                     : 11
    faces with skewness > 3   (internal) or 4   (boundary) : 0
    faces with interpolation weights (0..1)  < 0.02        : 0
    faces with volume ratio of neighbour cells < 0.01      : 0
    faces with face twist < 0.02                           : 8
    faces on cells with determinant < 0.001                : 0

Iteration 6
Moving mesh using displacement scaling : min:0.177979  max:1
Checking faces in error :
    non-orthogonality > 65  degrees                        : 0
    faces with face pyramid volume < 1e-13                 : 4
    faces with face-decomposition tet quality < 1e-12      : 376
    faces with concavity > 80  degrees                     : 9
    faces with skewness > 3   (internal) or 4   (boundary) : 0
    faces with interpolation weights (0..1)  < 0.02        : 0
    faces with volume ratio of neighbour cells < 0.01      : 0
    faces with face twist < 0.02                           : 12
    faces on cells with determinant < 0.001                : 0

Iteration 7
Displacement scaling for error reduction set to 0.
Moving mesh using displacement scaling : min:0.133484  max:1
Checking faces in error :
    non-orthogonality > 65  degrees                        : 0
    faces with face pyramid volume < 1e-13                 : 3
    faces with face-decomposition tet quality < 1e-12      : 298
    faces with concavity > 80  degrees                     : 12
    faces with skewness > 3   (internal) or 4   (boundary) : 0
    faces with interpolation weights (0..1)  < 0.02        : 0
    faces with volume ratio of neighbour cells < 0.01      : 0
    faces with face twist < 0.02                           : 14
    faces on cells with determinant < 0.001                : 0

Iteration 8
Moving mesh using displacement scaling : min:0  max:1
Checking faces in error :
    non-orthogonality > 65  degrees                        : 0
    faces with face pyramid volume < 1e-13                 : 0
    faces with face-decomposition tet quality < 1e-12      : 3
    faces with concavity > 80  degrees                     : 0
    faces with skewness > 3   (internal) or 4   (boundary) : 0
    faces with interpolation weights (0..1)  < 0.02        : 0
    faces with volume ratio of neighbour cells < 0.01      : 0
    faces with face twist < 0.02                           : 0
    faces on cells with determinant < 0.001                : 0

Iteration 9
Moving mesh using displacement scaling : min:0  max:1
Checking faces in error :
    non-orthogonality > 65  degrees                        : 0
    faces with face pyramid volume < 1e-13                 : 0
    faces with face-decomposition tet quality < 1e-12      : 0
    faces with concavity > 80  degrees                     : 0
    faces with skewness > 3   (internal) or 4   (boundary) : 0
    faces with interpolation weights (0..1)  < 0.02        : 0
    faces with volume ratio of neighbour cells < 0.01      : 0
    faces with face twist < 0.02                           : 0
    faces on cells with determinant < 0.001                : 0
Successfully moved mesh
Moved mesh in = 15.2955 s



Morph iteration 6
-----------------
Calculating patchDisplacement as distance to nearest surface point ...
Wanted displacement : average:0.000759408 min:3.91135e-09 max:0.0066017
Calculated surface displacement in = 0.068153 s


Detecting near surfaces ...
Overriding nearest with intersection of close gaps at 813 out of 116265 points.
Overriding displacement on features :
   implicit features    : true
   explicit features    : false
   multi-patch features : false

Attraction:
     linear   : max:(0.00695835 -0.0151234 0.0135963) avg:(6.54235e-06 3.52306e-07 2.80786e-06)
     feature  : max:(-0.0042917 0.0247449 -0.0257329) avg:(2.79221e-07 -5.87747e-06 1.02275e-05)
Feature analysis : total master points:116265 attraction to :
    feature point   : 578
    feature edge    : 7925
    nearest surface : 107702
    rest            : 60

--> FOAM Warning : Displacement (0.00237154 -0.00266932 -0.00285408) at mesh point 196122 coord (-3.00102 -9.89142 -2.48741) points through the surrounding patch faces
Smoothing displacement ...
Iteration 0
Iteration 10
Iteration 20
Iteration 30
Iteration 40
Displacement smoothed in = 1.94946 s


Moving mesh ...

Iteration 0
Moving mesh using displacement scaling : min:1  max:1
Checking faces in error :
    non-orthogonality > 65  degrees                        : 386
    faces with face pyramid volume < 1e-13                 : 428
    faces with face-decomposition tet quality < 1e-12      : 1198
    faces with concavity > 80  degrees                     : 11
    faces with skewness > 3   (internal) or 4   (boundary) : 3
    faces with interpolation weights (0..1)  < 0.02        : 0
    faces with volume ratio of neighbour cells < 0.01      : 0
    faces with face twist < 0.02                           : 21
    faces on cells with determinant < 0.001                : 0

Iteration 1
Moving mesh using displacement scaling : min:0.75  max:1
Checking faces in error :
    non-orthogonality > 65  degrees                        : 211
    faces with face pyramid volume < 1e-13                 : 259
    faces with face-decomposition tet quality < 1e-12      : 1140
    faces with concavity > 80  degrees                     : 11
    faces with skewness > 3   (internal) or 4   (boundary) : 0
    faces with interpolation weights (0..1)  < 0.02        : 0
    faces with volume ratio of neighbour cells < 0.01      : 1
    faces with face twist < 0.02                           : 15
    faces on cells with determinant < 0.001                : 0

Iteration 2
Moving mesh using displacement scaling : min:0.5625  max:1
Checking faces in error :
    non-orthogonality > 65  degrees                        : 75
    faces with face pyramid volume < 1e-13                 : 132
    faces with face-decomposition tet quality < 1e-12      : 1079
    faces with concavity > 80  degrees                     : 11
    faces with skewness > 3   (internal) or 4   (boundary) : 0
    faces with interpolation weights (0..1)  < 0.02        : 0
    faces with volume ratio of neighbour cells < 0.01      : 0
    faces with face twist < 0.02                           : 18
    faces on cells with determinant < 0.001                : 0

Iteration 3
Moving mesh using displacement scaling : min:0.421875  max:1
Checking faces in error :
    non-orthogonality > 65  degrees                        : 29
    faces with face pyramid volume < 1e-13                 : 74
    faces with face-decomposition tet quality < 1e-12      : 943
    faces with concavity > 80  degrees                     : 12
    faces with skewness > 3   (internal) or 4   (boundary) : 1
    faces with interpolation weights (0..1)  < 0.02        : 0
    faces with volume ratio of neighbour cells < 0.01      : 0
    faces with face twist < 0.02                           : 19
    faces on cells with determinant < 0.001                : 0

Iteration 4
Moving mesh using displacement scaling : min:0.316406  max:1
Checking faces in error :
    non-orthogonality > 65  degrees                        : 9
    faces with face pyramid volume < 1e-13                 : 37
    faces with face-decomposition tet quality < 1e-12      : 839
    faces with concavity > 80  degrees                     : 14
    faces with skewness > 3   (internal) or 4   (boundary) : 1
    faces with interpolation weights (0..1)  < 0.02        : 0
    faces with volume ratio of neighbour cells < 0.01      : 0
    faces with face twist < 0.02                           : 12
    faces on cells with determinant < 0.001                : 0

Iteration 5
Moving mesh using displacement scaling : min:0.237305  max:1
Checking faces in error :
    non-orthogonality > 65  degrees                        : 1
    faces with face pyramid volume < 1e-13                 : 21
    faces with face-decomposition tet quality < 1e-12      : 723
    faces with concavity > 80  degrees                     : 17
    faces with skewness > 3   (internal) or 4   (boundary) : 1
    faces with interpolation weights (0..1)  < 0.02        : 0
    faces with volume ratio of neighbour cells < 0.01      : 0
    faces with face twist < 0.02                           : 23
    faces on cells with determinant < 0.001                : 0

Iteration 6
Moving mesh using displacement scaling : min:0.177979  max:1
Checking faces in error :
    non-orthogonality > 65  degrees                        : 0
    faces with face pyramid volume < 1e-13                 : 10
    faces with face-decomposition tet quality < 1e-12      : 592
    faces with concavity > 80  degrees                     : 15
    faces with skewness > 3   (internal) or 4   (boundary) : 0
    faces with interpolation weights (0..1)  < 0.02        : 0
    faces with volume ratio of neighbour cells < 0.01      : 0
    faces with face twist < 0.02                           : 30
    faces on cells with determinant < 0.001                : 0

Iteration 7
Displacement scaling for error reduction set to 0.
Moving mesh using displacement scaling : min:0.133484  max:1
Checking faces in error :
    non-orthogonality > 65  degrees                        : 0
    faces with face pyramid volume < 1e-13                 : 6
    faces with face-decomposition tet quality < 1e-12      : 483
    faces with concavity > 80  degrees                     : 11
    faces with skewness > 3   (internal) or 4   (boundary) : 1
    faces with interpolation weights (0..1)  < 0.02        : 0
    faces with volume ratio of neighbour cells < 0.01      : 0
    faces with face twist < 0.02                           : 36
    faces on cells with determinant < 0.001                : 0

Iteration 8
Moving mesh using displacement scaling : min:0  max:1
Checking faces in error :
    non-orthogonality > 65  degrees                        : 0
    faces with face pyramid volume < 1e-13                 : 0
    faces with face-decomposition tet quality < 1e-12      : 12
    faces with concavity > 80  degrees                     : 0
    faces with skewness > 3   (internal) or 4   (boundary) : 0
    faces with interpolation weights (0..1)  < 0.02        : 0
    faces with volume ratio of neighbour cells < 0.01      : 0
    faces with face twist < 0.02                           : 1
    faces on cells with determinant < 0.001                : 0

Iteration 9
Moving mesh using displacement scaling : min:0  max:1
Checking faces in error :
    non-orthogonality > 65  degrees                        : 0
    faces with face pyramid volume < 1e-13                 : 0
    faces with face-decomposition tet quality < 1e-12      : 0
    faces with concavity > 80  degrees                     : 0
    faces with skewness > 3   (internal) or 4   (boundary) : 0
[...]
    faces with volume ratio of neighbour cells < 0.01      : 0
    faces with face twist < 0.02                           : 0
    faces on cells with determinant < 0.001                : 0
Detected 4 illegal faces (concave, zero area or negative cell pyramid volume)
Extruding 87264 out of 90834 faces (96.0698%). Removed extrusion at 3 faces.
Added 236028 out of 261629 cells (90.2148%).


Layer addition iteration 9
--------------------------

Determining displacement for added points according to pointNormal ...
Detected 0 points with point normal pointing through faces.
Reset displacement at 0 points to average of surrounding points.

displacementMedialAxis : Smoothing using Medial Axis ...
displacementMedialAxis : Reducing layer thickness at 2705 nodes where thickness to medial axis distance is large 
displacementMedialAxis : Removing isolated regions ...
displacementMedialAxis : Number of isolated points extrusion stopped : 2
displacementMedialAxis : Smoothing field ...
    Iteration 0   residual 0.000178224
displacementMedialAxis : Moving mesh ...
displacementMedialAxis : Iteration 0
Moving mesh using displacement scaling : min:1  max:1
Checking faces in error :
    non-orthogonality > 65  degrees                        : 43
    faces with face pyramid volume < 1e-13                 : 2
    faces with face-decomposition tet quality < 1e-12      : 96
    faces with concavity > 80  degrees                     : 3
    faces with skewness > 3   (internal) or 4   (boundary) : 1
    faces with interpolation weights (0..1)  < 0.02        : 0
    faces with volume ratio of neighbour cells < 0.01      : 0
    faces with face twist < 0.02                           : 7
    faces on cells with determinant < 0.001                : 4
displacementMedialAxis : Iteration 1
Moving mesh using displacement scaling : min:0.75  max:1
Checking faces in error :
    non-orthogonality > 65  degrees                        : 0
    faces with face pyramid volume < 1e-13                 : 0
    faces with face-decomposition tet quality < 1e-12      : 50
    faces with concavity > 80  degrees                     : 0
    faces with skewness > 3   (internal) or 4   (boundary) : 1
    faces with interpolation weights (0..1)  < 0.02        : 0
    faces with volume ratio of neighbour cells < 0.01      : 0
    faces with face twist < 0.02                           : 0
    faces on cells with determinant < 0.001                : 0
displacementMedialAxis : Iteration 2
Moving mesh using displacement scaling : min:0.5625  max:1
Checking faces in error :
    non-orthogonality > 65  degrees                        : 0
    faces with face pyramid volume < 1e-13                 : 0
    faces with face-decomposition tet quality < 1e-12      : 42
    faces with concavity > 80  degrees                     : 0
    faces with skewness > 3   (internal) or 4   (boundary) : 0
    faces with interpolation weights (0..1)  < 0.02        : 0
    faces with volume ratio of neighbour cells < 0.01      : 0
    faces with face twist < 0.02                           : 0
    faces on cells with determinant < 0.001                : 0
displacementMedialAxis : Iteration 3
Moving mesh using displacement scaling : min:0.421875  max:1
Checking faces in error :
    non-orthogonality > 65  degrees                        : 0
    faces with face pyramid volume < 1e-13                 : 0
    faces with face-decomposition tet quality < 1e-12      : 32
    faces with concavity > 80  degrees                     : 0
    faces with skewness > 3   (internal) or 4   (boundary) : 0
    faces with interpolation weights (0..1)  < 0.02        : 0
    faces with volume ratio of neighbour cells < 0.01      : 0
    faces with face twist < 0.02                           : 0
    faces on cells with determinant < 0.001                : 0
displacementMedialAxis : Iteration 4
Moving mesh using displacement scaling : min:0.316406  max:1
Checking faces in error :
    non-orthogonality > 65  degrees                        : 0
    faces with face pyramid volume < 1e-13                 : 0
    faces with face-decomposition tet quality < 1e-12      : 14
    faces with concavity > 80  degrees                     : 0
    faces with skewness > 3   (internal) or 4   (boundary) : 0
    faces with interpolation weights (0..1)  < 0.02        : 0
    faces with volume ratio of neighbour cells < 0.01      : 0
    faces with face twist < 0.02                           : 0
    faces on cells with determinant < 0.001                : 0
displacementMedialAxis : Iteration 5
displacementMedialAxis : Displacement scaling for error reduction set to 0.
Moving mesh using displacement scaling : min:0.237305  max:1
Checking faces in error :
    non-orthogonality > 65  degrees                        : 0
    faces with face pyramid volume < 1e-13                 : 0
    faces with face-decomposition tet quality < 1e-12      : 0
    faces with concavity > 80  degrees                     : 0
    faces with skewness > 3   (internal) or 4   (boundary) : 0
    faces with interpolation weights (0..1)  < 0.02        : 0
    faces with volume ratio of neighbour cells < 0.01      : 0
    faces with face twist < 0.02                           : 0
    faces on cells with determinant < 0.001                : 0
displacementMedialAxis : Successfully moved mesh
displacementMedialAxis : Finished moving mesh ...
truncateDisplacement : Unextruded 0 faces due to non-consecutive vertices being extruded.
truncateDisplacement : Unextruded 0 faces due to stringed edges with inconsistent extrusion.

Setting up information for layer truncation ...

Checking mesh with layer ...
Checking faces in error :
    non-orthogonality > 65  degrees                        : 0
    faces with face pyramid volume < 1e-13                 : 0
    faces with face-decomposition tet quality < 1e-12      : 1
    faces with concavity > 80  degrees                     : 0
    faces with skewness > 3   (internal) or 4   (boundary) : 0
    faces with interpolation weights (0..1)  < 0.02        : 0
    faces with volume ratio of neighbour cells < 0.01      : 0
    faces with face twist < 0.02                           : 0
    faces on cells with determinant < 0.001                : 0
Detected 1 illegal faces (concave, zero area or negative cell pyramid volume)
Extruding 87260 out of 90834 faces (96.0653%). Removed extrusion at 1 faces.
Added 236016 out of 261629 cells (90.2102%).


Layer addition iteration 10
--------------------------

Determining displacement for added points according to pointNormal ...
Detected 0 points with point normal pointing through faces.
Reset displacement at 0 points to average of surrounding points.

displacementMedialAxis : Smoothing using Medial Axis ...
displacementMedialAxis : Reducing layer thickness at 2704 nodes where thickness to medial axis distance is large 
displacementMedialAxis : Removing isolated regions ...
displacementMedialAxis : Number of isolated points extrusion stopped : 0
displacementMedialAxis : Smoothing field ...
    Iteration 0   residual 0.000178187
displacementMedialAxis : Moving mesh ...
displacementMedialAxis : Iteration 0
Moving mesh using displacement scaling : min:1  max:1
Checking faces in error :
    non-orthogonality > 65  degrees                        : 43
    faces with face pyramid volume < 1e-13                 : 2
    faces with face-decomposition tet quality < 1e-12      : 96
    faces with concavity > 80  degrees                     : 3
    faces with skewness > 3   (internal) or 4   (boundary) : 1
    faces with interpolation weights (0..1)  < 0.02        : 0
    faces with volume ratio of neighbour cells < 0.01      : 0
    faces with face twist < 0.02                           : 7
    faces on cells with determinant < 0.001                : 4
displacementMedialAxis : Iteration 1
Moving mesh using displacement scaling : min:0.75  max:1
Checking faces in error :
    non-orthogonality > 65  degrees                        : 0
    faces with face pyramid volume < 1e-13                 : 0
    faces with face-decomposition tet quality < 1e-12      : 50
    faces with concavity > 80  degrees                     : 0
    faces with skewness > 3   (internal) or 4   (boundary) : 1
    faces with interpolation weights (0..1)  < 0.02        : 0
    faces with volume ratio of neighbour cells < 0.01      : 0
    faces with face twist < 0.02                           : 0
    faces on cells with determinant < 0.001                : 0
displacementMedialAxis : Iteration 2
Moving mesh using displacement scaling : min:0.5625  max:1
Checking faces in error :
    non-orthogonality > 65  degrees                        : 0
    faces with face pyramid volume < 1e-13                 : 0
    faces with face-decomposition tet quality < 1e-12      : 42
    faces with concavity > 80  degrees                     : 0
    faces with skewness > 3   (internal) or 4   (boundary) : 0
    faces with interpolation weights (0..1)  < 0.02        : 0
    faces with volume ratio of neighbour cells < 0.01      : 0
    faces with face twist < 0.02                           : 0
    faces on cells with determinant < 0.001                : 0
displacementMedialAxis : Iteration 3
Moving mesh using displacement scaling : min:0.421875  max:1
Checking faces in error :
    non-orthogonality > 65  degrees                        : 0
    faces with face pyramid volume < 1e-13                 : 0
    faces with face-decomposition tet quality < 1e-12      : 32
    faces with concavity > 80  degrees                     : 0
    faces with skewness > 3   (internal) or 4   (boundary) : 0
    faces with interpolation weights (0..1)  < 0.02        : 0
    faces with volume ratio of neighbour cells < 0.01      : 0
    faces with face twist < 0.02                           : 0
    faces on cells with determinant < 0.001                : 0
displacementMedialAxis : Iteration 4
Moving mesh using displacement scaling : min:0.316406  max:1
Checking faces in error :
    non-orthogonality > 65  degrees                        : 0
    faces with face pyramid volume < 1e-13                 : 0
    faces with face-decomposition tet quality < 1e-12      : 14
    faces with concavity > 80  degrees                     : 0
    faces with skewness > 3   (internal) or 4   (boundary) : 0
    faces with interpolation weights (0..1)  < 0.02        : 0
    faces with volume ratio of neighbour cells < 0.01      : 0
    faces with face twist < 0.02                           : 0
    faces on cells with determinant < 0.001                : 0
displacementMedialAxis : Iteration 5
displacementMedialAxis : Displacement scaling for error reduction set to 0.
Moving mesh using displacement scaling : min:0.237305  max:1
Checking faces in error :
    non-orthogonality > 65  degrees                        : 0
    faces with face pyramid volume < 1e-13                 : 0
    faces with face-decomposition tet quality < 1e-12      : 0
    faces with concavity > 80  degrees                     : 0
    faces with skewness > 3   (internal) or 4   (boundary) : 0
    faces with interpolation weights (0..1)  < 0.02        : 0
    faces with volume ratio of neighbour cells < 0.01      : 0
    faces with face twist < 0.02                           : 0
    faces on cells with determinant < 0.001                : 0
displacementMedialAxis : Successfully moved mesh
displacementMedialAxis : Finished moving mesh ...
truncateDisplacement : Unextruded 0 faces due to non-consecutive vertices being extruded.
truncateDisplacement : Unextruded 0 faces due to stringed edges with inconsistent extrusion.

Setting up information for layer truncation ...

Checking mesh with layer ...
Checking faces in error :
    non-orthogonality > 65  degrees                        : 0
    faces with face pyramid volume < 1e-13                 : 0
    faces with face-decomposition tet quality < 1e-12      : 1
    faces with concavity > 80  degrees                     : 0
    faces with skewness > 3   (internal) or 4   (boundary) : 0
    faces with interpolation weights (0..1)  < 0.02        : 0
    faces with volume ratio of neighbour cells < 0.01      : 0
    faces with face twist < 0.02                           : 0
    faces on cells with determinant < 0.001                : 0
Detected 1 illegal faces (concave, zero area or negative cell pyramid volume)
Extruding 87259 out of 90834 faces (96.0642%). Removed extrusion at 1 faces.
Added 236013 out of 261629 cells (90.209%).


Layer addition iteration 11
--------------------------

Determining displacement for added points according to pointNormal ...
Detected 0 points with point normal pointing through faces.
Reset displacement at 0 points to average of surrounding points.

displacementMedialAxis : Smoothing using Medial Axis ...
displacementMedialAxis : Reducing layer thickness at 2704 nodes where thickness to medial axis distance is large 
displacementMedialAxis : Removing isolated regions ...
displacementMedialAxis : Number of isolated points extrusion stopped : 0
displacementMedialAxis : Smoothing field ...
    Iteration 0   residual 0.000178201
displacementMedialAxis : Moving mesh ...
displacementMedialAxis : Iteration 0
Moving mesh using displacement scaling : min:1  max:1
Checking faces in error :
    non-orthogonality > 65  degrees                        : 43
    faces with face pyramid volume < 1e-13                 : 2
    faces with face-decomposition tet quality < 1e-12      : 96
    faces with concavity > 80  degrees                     : 3
    faces with skewness > 3   (internal) or 4   (boundary) : 1
    faces with interpolation weights (0..1)  < 0.02        : 0
    faces with volume ratio of neighbour cells < 0.01      : 0
    faces with face twist < 0.02                           : 7
    faces on cells with determinant < 0.001                : 4
displacementMedialAxis : Iteration 1
Moving mesh using displacement scaling : min:0.75  max:1
Checking faces in error :
    non-orthogonality > 65  degrees                        : 0
    faces with face pyramid volume < 1e-13                 : 0
    faces with face-decomposition tet quality < 1e-12      : 51
    faces with concavity > 80  degrees                     : 0
    faces with skewness > 3   (internal) or 4   (boundary) : 1
    faces with interpolation weights (0..1)  < 0.02        : 0
    faces with volume ratio of neighbour cells < 0.01      : 0
    faces with face twist < 0.02                           : 0
    faces on cells with determinant < 0.001                : 0
displacementMedialAxis : Iteration 2
Moving mesh using displacement scaling : min:0.5625  max:1
Checking faces in error :
    non-orthogonality > 65  degrees                        : 0
    faces with face pyramid volume < 1e-13                 : 0
    faces with face-decomposition tet quality < 1e-12      : 43
    faces with concavity > 80  degrees                     : 0
    faces with skewness > 3   (internal) or 4   (boundary) : 0
    faces with interpolation weights (0..1)  < 0.02        : 0
    faces with volume ratio of neighbour cells < 0.01      : 0
    faces with face twist < 0.02                           : 0
    faces on cells with determinant < 0.001                : 0
displacementMedialAxis : Iteration 3
Moving mesh using displacement scaling : min:0.421875  max:1
Checking faces in error :
    non-orthogonality > 65  degrees                        : 0
    faces with face pyramid volume < 1e-13                 : 0
    faces with face-decomposition tet quality < 1e-12      : 32
    faces with concavity > 80  degrees                     : 0
    faces with skewness > 3   (internal) or 4   (boundary) : 0
    faces with interpolation weights (0..1)  < 0.02        : 0
    faces with volume ratio of neighbour cells < 0.01      : 0
    faces with face twist < 0.02                           : 0
    faces on cells with determinant < 0.001                : 0
displacementMedialAxis : Iteration 4
Moving mesh using displacement scaling : min:0.316406  max:1
Checking faces in error :
    non-orthogonality > 65  degrees                        : 0
    faces with face pyramid volume < 1e-13                 : 0
    faces with face-decomposition tet quality < 1e-12      : 14
    faces with concavity > 80  degrees                     : 0
    faces with skewness > 3   (internal) or 4   (boundary) : 0
    faces with interpolation weights (0..1)  < 0.02        : 0
    faces with volume ratio of neighbour cells < 0.01      : 0
    faces with face twist < 0.02                           : 0
    faces on cells with determinant < 0.001                : 0
displacementMedialAxis : Iteration 5
displacementMedialAxis : Displacement scaling for error reduction set to 0.
Moving mesh using displacement scaling : min:0.237305  max:1
Checking faces in error :
    non-orthogonality > 65  degrees                        : 0
    faces with face pyramid volume < 1e-13                 : 0
    faces with face-decomposition tet quality < 1e-12      : 0
    faces with concavity > 80  degrees                     : 0
    faces with skewness > 3   (internal) or 4   (boundary) : 0
    faces with interpolation weights (0..1)  < 0.02        : 0
    faces with volume ratio of neighbour cells < 0.01      : 0
    faces with face twist < 0.02                           : 0
    faces on cells with determinant < 0.001                : 0
displacementMedialAxis : Successfully moved mesh
displacementMedialAxis : Finished moving mesh ...
truncateDisplacement : Unextruded 0 faces due to non-consecutive vertices being extruded.
truncateDisplacement : Unextruded 0 faces due to stringed edges with inconsistent extrusion.

Setting up information for layer truncation ...

Checking mesh with layer ...
Checking faces in error :
    non-orthogonality > 65  degrees                        : 0
    faces with face pyramid volume < 1e-13                 : 0
    faces with face-decomposition tet quality < 1e-12      : 0
    faces with concavity > 80  degrees                     : 0
    faces with skewness > 3   (internal) or 4   (boundary) : 0
    faces with interpolation weights (0..1)  < 0.02        : 0
    faces with volume ratio of neighbour cells < 0.01      : 0
    faces with face twist < 0.02                           : 0
    faces on cells with determinant < 0.001                : 0
Detected 0 illegal faces (concave, zero area or negative cell pyramid volume)
Extruding 87259 out of 90834 faces (96.0642%). Removed extrusion at 0 faces.
Added 236005 out of 261629 cells (90.206%).
Edge intersection testing:
    Number of edges             : 2826163
    Number of edges to retest   : 0
    Number of intersected edges : 333675

patch  faces    layers   overall thickness
                         [m]       [%]
-----  -----    ------   ---       ---
walls  43880    2.85     0.0199    93.8    
drone  35713    2.65     0.0179    84.4    
blade1 2849     1.45     0.0079    52.1    
blade2 2796     1.43     0.00787   51.7    
blade3 2797     1.42     0.00779   51.4    
blade4 2799     1.48     0.00842   55.5    

Layer mesh : cells:896004  faces:2826163  points:1039369
Cells per refinement level:
    0	48512
    1	326424
    2	50671
    3	170102
    4	300295
Writing mesh to time constant
Wrote mesh in = 168.896 s.
Layers added in = 168.896 s.
Checking final mesh ...
Checking faces in error :
    non-orthogonality > 65  degrees                        : 0
    faces with face pyramid volume < 1e-13                 : 0
    faces with face-decomposition tet quality < 1e-12      : 0
    faces with concavity > 80  degrees                     : 0
    faces with skewness > 3   (internal) or 4   (boundary) : 0
    faces with interpolation weights (0..1)  < 0.02        : 0
    faces with volume ratio of neighbour cells < 0.01      : 0
    faces with face twist < 0.02                           : 0
    faces on cells with determinant < 0.001                : 0
Finished meshing without any errors
Finished meshing in = 405.34 s.
End

